BEGIN Configuration File: ../../../booksim/src/examples/Testing_0.01
topology = mesh;
k = 3;
n = 2;
routing_function = adaptive_xy_yx;
num_vcs     = 4;
vc_buf_size = 8;
wait_for_tail_credit = 1;
vc_allocator = islip;
sw_allocator = islip;
alloc_iters  = 1;
credit_delay   = 2;
routing_delay  = 0;
vc_alloc_delay = 1;
sw_alloc_delay = 1;
input_speedup     = 2;
output_speedup    = 1;
internal_speedup  = 1.0;
noq=0;
traffic = uniform;
packet_size = {5,8};
injection_rate = {0.01,0.01};
injection_process = bernoulli;
sim_type = latency;
classes = 2;
print_csv_results = 0;
watch_flits = {0};
viewer_trace = 1;
network_file = network_file;
arb_type=priority;
speculative=0;
stats_out=stats.txt;
print_activity = 0;
seed=2;

END Configuration File: ../../../booksim/src/examples/Testing_0.01
 New Packet Generated | Packet ID: 0 | Src: 4 | Dest: 8
  --> Flit ID: 0
  --> Flit ID: 1
  --> Flit ID: 2
  --> Flit ID: 3
  --> Flit ID: 4
TIME 1
TIME 2
 New Packet Generated | Packet ID: 1 | Src: 8 | Dest: 8
  --> Flit ID: 5
  --> Flit ID: 6
  --> Flit ID: 7
  --> Flit ID: 8
  --> Flit ID: 9
  --> Flit ID: 10
  --> Flit ID: 11
  --> Flit ID: 12
TIME 3
TIME 4
Router 4 Sending Flit through Outport 2
  Flit ID   : 0 | Packet ID : 0 | Src : 4 | Dest : 8
------------------------------
TIME 5
 New Packet Generated | Packet ID: 2 | Src: 8 | Dest: 0
  --> Flit ID: 13
  --> Flit ID: 14
  --> Flit ID: 15
  --> Flit ID: 16
  --> Flit ID: 17
Router 4 Sending Flit through Outport 2
  Flit ID   : 1 | Packet ID : 0 | Src : 4
------------------------------
TIME 6
Router 4 Sending Flit through Outport 2
  Flit ID   : 2 | Packet ID : 0 | Src : 4
------------------------------
Router 8 Sending Flit through Outport 4
  Flit ID   : 5 | Packet ID : 1 | Src : 8 | Dest : 8
------------------------------
TIME 7
Router 4 Sending Flit through Outport 2
  Flit ID   : 3 | Packet ID : 0 | Src : 4
------------------------------
Router 8 Sending Flit through Outport 4
  Flit ID   : 6 | Packet ID : 1 | Src : 8
------------------------------
TIME 8
Router 4 Sending Flit through Outport 2
  Flit ID   : 4 | Packet ID : 0 | Src : 4
------------------------------
Router 7 Sending Flit through Outport 0
  Flit ID   : 0 | Packet ID : 0 | Src : 4 | Dest : 8
------------------------------
Router 8 Sending Flit through Outport 4
  Flit ID   : 7 | Packet ID : 1 | Src : 8
------------------------------
TIME 9
Router 7 Sending Flit through Outport 0
  Flit ID   : 1 | Packet ID : 0 | Src : 4
------------------------------
Router 8 Sending Flit through Outport 4
  Flit ID   : 8 | Packet ID : 1 | Src : 8
------------------------------
TIME 10
Router 7 Sending Flit through Outport 0
  Flit ID   : 2 | Packet ID : 0 | Src : 4
------------------------------
Router 8 Sending Flit through Outport 4
  Flit ID   : 9 | Packet ID : 1 | Src : 8
------------------------------
TIME 11
Router 7 Sending Flit through Outport 0
  Flit ID   : 3 | Packet ID : 0 | Src : 4
------------------------------
Router 8 Sending Flit through Outport 4
  Flit ID   : 10 | Packet ID : 1 | Src : 8
------------------------------
TIME 12
Router 7 Sending Flit through Outport 0
  Flit ID   : 4 | Packet ID : 0 | Src : 4
------------------------------
Router 8 Sending Flit through Outport 4
  Flit ID   : 0 | Packet ID : 0 | Src : 4 | Dest : 8
------------------------------
TIME 13
Router 8 Sending Flit through Outport 4
  Flit ID   : 11 | Packet ID : 1 | Src : 8
------------------------------
TIME 14
Router 8 Sending Flit through Outport 4
  Flit ID   : 1 | Packet ID : 0 | Src : 4
------------------------------
TIME 15
Router 8 Sending Flit through Outport 4
  Flit ID   : 12 | Packet ID : 1 | Src : 8
------------------------------
TIME 16
Router 8 Sending Flit through Outport 4
  Flit ID   : 2 | Packet ID : 0 | Src : 4
------------------------------
TIME 17
Router 8 Sending Flit through Outport 4
  Flit ID   : 3 | Packet ID : 0 | Src : 4
------------------------------
TIME 18
Router 8 Sending Flit through Outport 4
  Flit ID   : 4 | Packet ID : 0 | Src : 4
------------------------------
TIME 19
 New Packet Generated | Packet ID: 3 | Src: 6 | Dest: 2
  --> Flit ID: 18
  --> Flit ID: 19
  --> Flit ID: 20
  --> Flit ID: 21
  --> Flit ID: 22
  --> Flit ID: 23
  --> Flit ID: 24
  --> Flit ID: 25
TIME 20
Router 8 Sending Flit through Outport 1
  Flit ID   : 13 | Packet ID : 2 | Src : 8 | Dest : 0
------------------------------
TIME 21
Router 8 Sending Flit through Outport 1
  Flit ID   : 14 | Packet ID : 2 | Src : 8
------------------------------
TIME 22
Router 8 Sending Flit through Outport 1
  Flit ID   : 15 | Packet ID : 2 | Src : 8
------------------------------
TIME 23
 New Packet Generated | Packet ID: 4 | Src: 8 | Dest: 4
  --> Flit ID: 26
  --> Flit ID: 27
  --> Flit ID: 28
  --> Flit ID: 29
  --> Flit ID: 30
Router 6 Sending Flit through Outport 3
  Flit ID   : 18 | Packet ID : 3 | Src : 6 | Dest : 2
------------------------------
Router 8 Sending Flit through Outport 1
  Flit ID   : 16 | Packet ID : 2 | Src : 8
------------------------------
TIME 24
Router 6 Sending Flit through Outport 3
  Flit ID   : 19 | Packet ID : 3 | Src : 6
------------------------------
Router 7 Sending Flit through Outport 1
  Flit ID   : 13 | Packet ID : 2 | Src : 8 | Dest : 0
------------------------------
Router 8 Sending Flit through Outport 1
  Flit ID   : 17 | Packet ID : 2 | Src : 8
------------------------------
TIME 25
Router 6 Sending Flit through Outport 3
  Flit ID   : 20 | Packet ID : 3 | Src : 6
------------------------------
Router 7 Sending Flit through Outport 1
  Flit ID   : 14 | Packet ID : 2 | Src : 8
------------------------------
TIME 26
 New Packet Generated | Packet ID: 5 | Src: 3 | Dest: 4
  --> Flit ID: 31
  --> Flit ID: 32
  --> Flit ID: 33
  --> Flit ID: 34
  --> Flit ID: 35
Router 6 Sending Flit through Outport 3
  Flit ID   : 21 | Packet ID : 3 | Src : 6
------------------------------
Router 7 Sending Flit through Outport 1
  Flit ID   : 15 | Packet ID : 2 | Src : 8
------------------------------
TIME 27
Router 3 Sending Flit through Outport 3
  Flit ID   : 18 | Packet ID : 3 | Src : 6 | Dest : 2
------------------------------
Router 6 Sending Flit through Outport 3
  Flit ID   : 22 | Packet ID : 3 | Src : 6
------------------------------
Router 7 Sending Flit through Outport 1
  Flit ID   : 16 | Packet ID : 2 | Src : 8
------------------------------
Router 8 Sending Flit through Outport 3
  Flit ID   : 26 | Packet ID : 4 | Src : 8 | Dest : 4
------------------------------
TIME 28
Router 3 Sending Flit through Outport 3
  Flit ID   : 19 | Packet ID : 3 | Src : 6
------------------------------
Router 6 Sending Flit through Outport 3
  Flit ID   : 13 | Packet ID : 2 | Src : 8 | Dest : 0
------------------------------
Router 7 Sending Flit through Outport 1
  Flit ID   : 17 | Packet ID : 2 | Src : 8
------------------------------
Router 8 Sending Flit through Outport 3
  Flit ID   : 27 | Packet ID : 4 | Src : 8
------------------------------
TIME 29
Router 3 Sending Flit through Outport 3
  Flit ID   : 20 | Packet ID : 3 | Src : 6
------------------------------
Router 6 Sending Flit through Outport 3
  Flit ID   : 23 | Packet ID : 3 | Src : 6
------------------------------
Router 8 Sending Flit through Outport 3
  Flit ID   : 28 | Packet ID : 4 | Src : 8
------------------------------
TIME 30
Router 3 Sending Flit through Outport 0
  Flit ID   : 31 | Packet ID : 5 | Src : 3 | Dest : 4
------------------------------
Router 3 Sending Flit through Outport 3
  Flit ID   : 21 | Packet ID : 3 | Src : 6
------------------------------
Router 6 Sending Flit through Outport 3
  Flit ID   : 14 | Packet ID : 2 | Src : 8
------------------------------
Router 8 Sending Flit through Outport 3
  Flit ID   : 29 | Packet ID : 4 | Src : 8
------------------------------
TIME 31
Router 0 Sending Flit through Outport 0
  Flit ID   : 18 | Packet ID : 3 | Src : 6 | Dest : 2
------------------------------
Router 3 Sending Flit through Outport 0
  Flit ID   : 32 | Packet ID : 5 | Src : 3
------------------------------
Router 3 Sending Flit through Outport 3
  Flit ID   : 22 | Packet ID : 3 | Src : 6
------------------------------
Router 5 Sending Flit through Outport 1
  Flit ID   : 26 | Packet ID : 4 | Src : 8 | Dest : 4
------------------------------
Router 6 Sending Flit through Outport 3
  Flit ID   : 24 | Packet ID : 3 | Src : 6
------------------------------
Router 8 Sending Flit through Outport 3
  Flit ID   : 30 | Packet ID : 4 | Src : 8
------------------------------
TIME 32
Router 0 Sending Flit through Outport 0
  Flit ID   : 19 | Packet ID : 3 | Src : 6
------------------------------
Router 3 Sending Flit through Outport 0
  Flit ID   : 33 | Packet ID : 5 | Src : 3
------------------------------
Router 3 Sending Flit through Outport 3
  Flit ID   : 13 | Packet ID : 2 | Src : 8 | Dest : 0
------------------------------
Router 5 Sending Flit through Outport 1
  Flit ID   : 27 | Packet ID : 4 | Src : 8
------------------------------
Router 6 Sending Flit through Outport 3
  Flit ID   : 15 | Packet ID : 2 | Src : 8
------------------------------
TIME 33
Router 0 Sending Flit through Outport 0
  Flit ID   : 20 | Packet ID : 3 | Src : 6
------------------------------
Router 3 Sending Flit through Outport 0
  Flit ID   : 34 | Packet ID : 5 | Src : 3
------------------------------
Router 3 Sending Flit through Outport 3
  Flit ID   : 23 | Packet ID : 3 | Src : 6
------------------------------
Router 5 Sending Flit through Outport 1
  Flit ID   : 28 | Packet ID : 4 | Src : 8
------------------------------
Router 6 Sending Flit through Outport 3
  Flit ID   : 25 | Packet ID : 3 | Src : 6
------------------------------
TIME 34
Router 0 Sending Flit through Outport 0
  Flit ID   : 21 | Packet ID : 3 | Src : 6
------------------------------
Router 3 Sending Flit through Outport 0
  Flit ID   : 35 | Packet ID : 5 | Src : 3
------------------------------
Router 3 Sending Flit through Outport 3
  Flit ID   : 14 | Packet ID : 2 | Src : 8
------------------------------
Router 4 Sending Flit through Outport 4
  Flit ID   : 31 | Packet ID : 5 | Src : 3 | Dest : 4
------------------------------
Router 5 Sending Flit through Outport 1
  Flit ID   : 29 | Packet ID : 4 | Src : 8
------------------------------
Router 6 Sending Flit through Outport 3
  Flit ID   : 16 | Packet ID : 2 | Src : 8
------------------------------
TIME 35
 New Packet Generated | Packet ID: 6 | Src: 3 | Dest: 2
  --> Flit ID: 36
  --> Flit ID: 37
  --> Flit ID: 38
  --> Flit ID: 39
  --> Flit ID: 40
Router 0 Sending Flit through Outport 0
  Flit ID   : 22 | Packet ID : 3 | Src : 6
------------------------------
Router 1 Sending Flit through Outport 0
  Flit ID   : 18 | Packet ID : 3 | Src : 6 | Dest : 2
------------------------------
Router 3 Sending Flit through Outport 3
  Flit ID   : 24 | Packet ID : 3 | Src : 6
------------------------------
Router 4 Sending Flit through Outport 4
  Flit ID   : 26 | Packet ID : 4 | Src : 8 | Dest : 4
------------------------------
Router 5 Sending Flit through Outport 1
  Flit ID   : 30 | Packet ID : 4 | Src : 8
------------------------------
Router 6 Sending Flit through Outport 3
  Flit ID   : 17 | Packet ID : 2 | Src : 8
------------------------------
TIME 36
Router 0 Sending Flit through Outport 4
  Flit ID   : 13 | Packet ID : 2 | Src : 8 | Dest : 0
------------------------------
Router 1 Sending Flit through Outport 0
  Flit ID   : 19 | Packet ID : 3 | Src : 6
------------------------------
Router 3 Sending Flit through Outport 3
  Flit ID   : 15 | Packet ID : 2 | Src : 8
------------------------------
Router 4 Sending Flit through Outport 4
  Flit ID   : 32 | Packet ID : 5 | Src : 3
------------------------------
TIME 37
Router 0 Sending Flit through Outport 0
  Flit ID   : 23 | Packet ID : 3 | Src : 6
------------------------------
Router 1 Sending Flit through Outport 0
  Flit ID   : 20 | Packet ID : 3 | Src : 6
------------------------------
Router 3 Sending Flit through Outport 3
  Flit ID   : 25 | Packet ID : 3 | Src : 6
------------------------------
Router 4 Sending Flit through Outport 4
  Flit ID   : 27 | Packet ID : 4 | Src : 8
------------------------------
TIME 38
 New Packet Generated | Packet ID: 7 | Src: 5 | Dest: 7
  --> Flit ID: 41
  --> Flit ID: 42
  --> Flit ID: 43
  --> Flit ID: 44
  --> Flit ID: 45
  --> Flit ID: 46
  --> Flit ID: 47
  --> Flit ID: 48
Router 0 Sending Flit through Outport 4
  Flit ID   : 14 | Packet ID : 2 | Src : 8
------------------------------
Router 1 Sending Flit through Outport 0
  Flit ID   : 21 | Packet ID : 3 | Src : 6
------------------------------
Router 3 Sending Flit through Outport 3
  Flit ID   : 16 | Packet ID : 2 | Src : 8
------------------------------
Router 4 Sending Flit through Outport 4
  Flit ID   : 33 | Packet ID : 5 | Src : 3
------------------------------
TIME 39
Router 0 Sending Flit through Outport 0
  Flit ID   : 24 | Packet ID : 3 | Src : 6
------------------------------
Router 1 Sending Flit through Outport 0
  Flit ID   : 22 | Packet ID : 3 | Src : 6
------------------------------
Router 2 Sending Flit through Outport 4
  Flit ID   : 18 | Packet ID : 3 | Src : 6 | Dest : 2
------------------------------
Router 3 Sending Flit through Outport 0
  Flit ID   : 36 | Packet ID : 6 | Src : 3 | Dest : 2
------------------------------
Router 3 Sending Flit through Outport 3
  Flit ID   : 17 | Packet ID : 2 | Src : 8
------------------------------
Router 4 Sending Flit through Outport 4
  Flit ID   : 28 | Packet ID : 4 | Src : 8
------------------------------
TIME 40
Router 0 Sending Flit through Outport 4
  Flit ID   : 15 | Packet ID : 2 | Src : 8
------------------------------
Router 1 Sending Flit through Outport 0
  Flit ID   : 23 | Packet ID : 3 | Src : 6
------------------------------
Router 2 Sending Flit through Outport 4
  Flit ID   : 19 | Packet ID : 3 | Src : 6
------------------------------
Router 3 Sending Flit through Outport 0
  Flit ID   : 37 | Packet ID : 6 | Src : 3
------------------------------
Router 4 Sending Flit through Outport 4
  Flit ID   : 34 | Packet ID : 5 | Src : 3
------------------------------
TIME 41
Router 0 Sending Flit through Outport 0
  Flit ID   : 25 | Packet ID : 3 | Src : 6
------------------------------
Router 2 Sending Flit through Outport 4
  Flit ID   : 20 | Packet ID : 3 | Src : 6
------------------------------
Router 3 Sending Flit through Outport 0
  Flit ID   : 38 | Packet ID : 6 | Src : 3
------------------------------
Router 4 Sending Flit through Outport 4
  Flit ID   : 29 | Packet ID : 4 | Src : 8
------------------------------
TIME 42
 New Packet Generated | Packet ID: 8 | Src: 8 | Dest: 8
  --> Flit ID: 49
  --> Flit ID: 50
  --> Flit ID: 51
  --> Flit ID: 52
  --> Flit ID: 53
  --> Flit ID: 54
  --> Flit ID: 55
  --> Flit ID: 56
Router 0 Sending Flit through Outport 4
  Flit ID   : 16 | Packet ID : 2 | Src : 8
------------------------------
Router 1 Sending Flit through Outport 0
  Flit ID   : 24 | Packet ID : 3 | Src : 6
------------------------------
Router 2 Sending Flit through Outport 4
  Flit ID   : 21 | Packet ID : 3 | Src : 6
------------------------------
Router 3 Sending Flit through Outport 0
  Flit ID   : 39 | Packet ID : 6 | Src : 3
------------------------------
Router 4 Sending Flit through Outport 4
  Flit ID   : 35 | Packet ID : 5 | Src : 3
------------------------------
Router 5 Sending Flit through Outport 2
  Flit ID   : 41 | Packet ID : 7 | Src : 5 | Dest : 7
------------------------------
TIME 43
Router 0 Sending Flit through Outport 4
  Flit ID   : 17 | Packet ID : 2 | Src : 8
------------------------------
Router 2 Sending Flit through Outport 4
  Flit ID   : 22 | Packet ID : 3 | Src : 6
------------------------------
Router 3 Sending Flit through Outport 0
  Flit ID   : 40 | Packet ID : 6 | Src : 3
------------------------------
Router 4 Sending Flit through Outport 0
  Flit ID   : 36 | Packet ID : 6 | Src : 3 | Dest : 2
------------------------------
Router 4 Sending Flit through Outport 4
  Flit ID   : 30 | Packet ID : 4 | Src : 8
------------------------------
Router 5 Sending Flit through Outport 2
  Flit ID   : 42 | Packet ID : 7 | Src : 5
------------------------------
TIME 44
Router 1 Sending Flit through Outport 0
  Flit ID   : 25 | Packet ID : 3 | Src : 6
------------------------------
Router 2 Sending Flit through Outport 4
  Flit ID   : 23 | Packet ID : 3 | Src : 6
------------------------------
Router 4 Sending Flit through Outport 0
  Flit ID   : 37 | Packet ID : 6 | Src : 3
------------------------------
Router 5 Sending Flit through Outport 2
  Flit ID   : 43 | Packet ID : 7 | Src : 5
------------------------------
TIME 45
Router 2 Sending Flit through Outport 4
  Flit ID   : 24 | Packet ID : 3 | Src : 6
------------------------------
Router 4 Sending Flit through Outport 0
  Flit ID   : 38 | Packet ID : 6 | Src : 3
------------------------------
Router 5 Sending Flit through Outport 2
  Flit ID   : 44 | Packet ID : 7 | Src : 5
------------------------------
TIME 46
Router 4 Sending Flit through Outport 0
  Flit ID   : 39 | Packet ID : 6 | Src : 3
------------------------------
Router 5 Sending Flit through Outport 2
  Flit ID   : 45 | Packet ID : 7 | Src : 5
------------------------------
Router 8 Sending Flit through Outport 1
  Flit ID   : 41 | Packet ID : 7 | Src : 5 | Dest : 7
------------------------------
Router 8 Sending Flit through Outport 4
  Flit ID   : 49 | Packet ID : 8 | Src : 8 | Dest : 8
------------------------------
TIME 47
 New Packet Generated | Packet ID: 9 | Src: 0 | Dest: 0
  --> Flit ID: 57
  --> Flit ID: 58
  --> Flit ID: 59
  --> Flit ID: 60
  --> Flit ID: 61
Router 2 Sending Flit through Outport 4
  Flit ID   : 25 | Packet ID : 3 | Src : 6
------------------------------
Router 4 Sending Flit through Outport 0
  Flit ID   : 40 | Packet ID : 6 | Src : 3
------------------------------
Router 5 Sending Flit through Outport 2
  Flit ID   : 46 | Packet ID : 7 | Src : 5
------------------------------
Router 5 Sending Flit through Outport 3
  Flit ID   : 36 | Packet ID : 6 | Src : 3 | Dest : 2
------------------------------
Router 8 Sending Flit through Outport 1
  Flit ID   : 42 | Packet ID : 7 | Src : 5
------------------------------
Router 8 Sending Flit through Outport 4
  Flit ID   : 50 | Packet ID : 8 | Src : 8
------------------------------
TIME 48
Router 5 Sending Flit through Outport 2
  Flit ID   : 47 | Packet ID : 7 | Src : 5
------------------------------
Router 5 Sending Flit through Outport 3
  Flit ID   : 37 | Packet ID : 6 | Src : 3
------------------------------
Router 8 Sending Flit through Outport 1
  Flit ID   : 43 | Packet ID : 7 | Src : 5
------------------------------
Router 8 Sending Flit through Outport 4
  Flit ID   : 51 | Packet ID : 8 | Src : 8
------------------------------
TIME 49
Router 5 Sending Flit through Outport 2
  Flit ID   : 48 | Packet ID : 7 | Src : 5
------------------------------
Router 5 Sending Flit through Outport 3
  Flit ID   : 38 | Packet ID : 6 | Src : 3
------------------------------
Router 8 Sending Flit through Outport 1
  Flit ID   : 44 | Packet ID : 7 | Src : 5
------------------------------
Router 8 Sending Flit through Outport 4
  Flit ID   : 52 | Packet ID : 8 | Src : 8
------------------------------
TIME 50
 New Packet Generated | Packet ID: 10 | Src: 1 | Dest: 1
  --> Flit ID: 62
  --> Flit ID: 63
  --> Flit ID: 64
  --> Flit ID: 65
  --> Flit ID: 66
Router 5 Sending Flit through Outport 3
  Flit ID   : 39 | Packet ID : 6 | Src : 3
------------------------------
Router 7 Sending Flit through Outport 4
  Flit ID   : 41 | Packet ID : 7 | Src : 5 | Dest : 7
------------------------------
Router 8 Sending Flit through Outport 1
  Flit ID   : 45 | Packet ID : 7 | Src : 5
------------------------------
Router 8 Sending Flit through Outport 4
  Flit ID   : 53 | Packet ID : 8 | Src : 8
------------------------------
TIME 51
Router 0 Sending Flit through Outport 4
  Flit ID   : 57 | Packet ID : 9 | Src : 0 | Dest : 0
------------------------------
Router 2 Sending Flit through Outport 4
  Flit ID   : 36 | Packet ID : 6 | Src : 3 | Dest : 2
------------------------------
Router 5 Sending Flit through Outport 3
  Flit ID   : 40 | Packet ID : 6 | Src : 3
------------------------------
Router 7 Sending Flit through Outport 4
  Flit ID   : 42 | Packet ID : 7 | Src : 5
------------------------------
Router 8 Sending Flit through Outport 1
  Flit ID   : 46 | Packet ID : 7 | Src : 5
------------------------------
Router 8 Sending Flit through Outport 4
  Flit ID   : 54 | Packet ID : 8 | Src : 8
------------------------------
TIME 52
Router 0 Sending Flit through Outport 4
  Flit ID   : 58 | Packet ID : 9 | Src : 0
------------------------------
Router 2 Sending Flit through Outport 4
  Flit ID   : 37 | Packet ID : 6 | Src : 3
------------------------------
Router 7 Sending Flit through Outport 4
  Flit ID   : 43 | Packet ID : 7 | Src : 5
------------------------------
Router 8 Sending Flit through Outport 1
  Flit ID   : 47 | Packet ID : 7 | Src : 5
------------------------------
Router 8 Sending Flit through Outport 4
  Flit ID   : 55 | Packet ID : 8 | Src : 8
------------------------------
TIME 53
Router 0 Sending Flit through Outport 4
  Flit ID   : 59 | Packet ID : 9 | Src : 0
------------------------------
Router 2 Sending Flit through Outport 4
  Flit ID   : 38 | Packet ID : 6 | Src : 3
------------------------------
Router 7 Sending Flit through Outport 4
  Flit ID   : 44 | Packet ID : 7 | Src : 5
------------------------------
Router 8 Sending Flit through Outport 1
  Flit ID   : 48 | Packet ID : 7 | Src : 5
------------------------------
Router 8 Sending Flit through Outport 4
  Flit ID   : 56 | Packet ID : 8 | Src : 8
------------------------------
TIME 54
Router 0 Sending Flit through Outport 4
  Flit ID   : 60 | Packet ID : 9 | Src : 0
------------------------------
Router 1 Sending Flit through Outport 4
  Flit ID   : 62 | Packet ID : 10 | Src : 1 | Dest : 1
------------------------------
Router 2 Sending Flit through Outport 4
  Flit ID   : 39 | Packet ID : 6 | Src : 3
------------------------------
Router 7 Sending Flit through Outport 4
  Flit ID   : 45 | Packet ID : 7 | Src : 5
------------------------------
TIME 55
 New Packet Generated | Packet ID: 11 | Src: 7 | Dest: 1
  --> Flit ID: 67
  --> Flit ID: 68
  --> Flit ID: 69
  --> Flit ID: 70
  --> Flit ID: 71
  --> Flit ID: 72
  --> Flit ID: 73
  --> Flit ID: 74
Router 0 Sending Flit through Outport 4
  Flit ID   : 61 | Packet ID : 9 | Src : 0
------------------------------
Router 1 Sending Flit through Outport 4
  Flit ID   : 63 | Packet ID : 10 | Src : 1
------------------------------
Router 2 Sending Flit through Outport 4
  Flit ID   : 40 | Packet ID : 6 | Src : 3
------------------------------
Router 7 Sending Flit through Outport 4
  Flit ID   : 46 | Packet ID : 7 | Src : 5
------------------------------
TIME 56
Router 1 Sending Flit through Outport 4
  Flit ID   : 64 | Packet ID : 10 | Src : 1
------------------------------
Router 7 Sending Flit through Outport 4
  Flit ID   : 47 | Packet ID : 7 | Src : 5
------------------------------
TIME 57
Router 1 Sending Flit through Outport 4
  Flit ID   : 65 | Packet ID : 10 | Src : 1
------------------------------
Router 7 Sending Flit through Outport 4
  Flit ID   : 48 | Packet ID : 7 | Src : 5
------------------------------
TIME 58
Router 1 Sending Flit through Outport 4
  Flit ID   : 66 | Packet ID : 10 | Src : 1
------------------------------
TIME 59
Router 7 Sending Flit through Outport 3
  Flit ID   : 67 | Packet ID : 11 | Src : 7 | Dest : 1
------------------------------
TIME 60
Router 7 Sending Flit through Outport 3
  Flit ID   : 68 | Packet ID : 11 | Src : 7
------------------------------
TIME 61
Router 7 Sending Flit through Outport 3
  Flit ID   : 69 | Packet ID : 11 | Src : 7
------------------------------
TIME 62
 New Packet Generated | Packet ID: 12 | Src: 8 | Dest: 7
  --> Flit ID: 75
  --> Flit ID: 76
  --> Flit ID: 77
  --> Flit ID: 78
  --> Flit ID: 79
Router 7 Sending Flit through Outport 3
  Flit ID   : 70 | Packet ID : 11 | Src : 7
------------------------------
TIME 63
Router 4 Sending Flit through Outport 3
  Flit ID   : 67 | Packet ID : 11 | Src : 7 | Dest : 1
------------------------------
Router 7 Sending Flit through Outport 3
  Flit ID   : 71 | Packet ID : 11 | Src : 7
------------------------------
TIME 64
Router 4 Sending Flit through Outport 3
  Flit ID   : 68 | Packet ID : 11 | Src : 7
------------------------------
Router 7 Sending Flit through Outport 3
  Flit ID   : 72 | Packet ID : 11 | Src : 7
------------------------------
TIME 65
Router 4 Sending Flit through Outport 3
  Flit ID   : 69 | Packet ID : 11 | Src : 7
------------------------------
Router 7 Sending Flit through Outport 3
  Flit ID   : 73 | Packet ID : 11 | Src : 7
------------------------------
TIME 66
Router 4 Sending Flit through Outport 3
  Flit ID   : 70 | Packet ID : 11 | Src : 7
------------------------------
Router 7 Sending Flit through Outport 3
  Flit ID   : 74 | Packet ID : 11 | Src : 7
------------------------------
Router 8 Sending Flit through Outport 1
  Flit ID   : 75 | Packet ID : 12 | Src : 8 | Dest : 7
------------------------------
TIME 67
 New Packet Generated | Packet ID: 13 | Src: 1 | Dest: 3
  --> Flit ID: 80
  --> Flit ID: 81
  --> Flit ID: 82
  --> Flit ID: 83
  --> Flit ID: 84
  --> Flit ID: 85
  --> Flit ID: 86
  --> Flit ID: 87
 New Packet Generated | Packet ID: 14 | Src: 8 | Dest: 4
  --> Flit ID: 88
  --> Flit ID: 89
  --> Flit ID: 90
  --> Flit ID: 91
  --> Flit ID: 92
Router 1 Sending Flit through Outport 4
  Flit ID   : 67 | Packet ID : 11 | Src : 7 | Dest : 1
------------------------------
Router 4 Sending Flit through Outport 3
  Flit ID   : 71 | Packet ID : 11 | Src : 7
------------------------------
Router 8 Sending Flit through Outport 1
  Flit ID   : 76 | Packet ID : 12 | Src : 8
------------------------------
TIME 68
Router 1 Sending Flit through Outport 4
  Flit ID   : 68 | Packet ID : 11 | Src : 7
------------------------------
Router 4 Sending Flit through Outport 3
  Flit ID   : 72 | Packet ID : 11 | Src : 7
------------------------------
Router 8 Sending Flit through Outport 1
  Flit ID   : 77 | Packet ID : 12 | Src : 8
------------------------------
TIME 69
Router 1 Sending Flit through Outport 4
  Flit ID   : 69 | Packet ID : 11 | Src : 7
------------------------------
Router 4 Sending Flit through Outport 3
  Flit ID   : 73 | Packet ID : 11 | Src : 7
------------------------------
Router 8 Sending Flit through Outport 1
  Flit ID   : 78 | Packet ID : 12 | Src : 8
------------------------------
TIME 70
Router 1 Sending Flit through Outport 4
  Flit ID   : 70 | Packet ID : 11 | Src : 7
------------------------------
Router 4 Sending Flit through Outport 3
  Flit ID   : 74 | Packet ID : 11 | Src : 7
------------------------------
Router 7 Sending Flit through Outport 4
  Flit ID   : 75 | Packet ID : 12 | Src : 8 | Dest : 7
------------------------------
Router 8 Sending Flit through Outport 1
  Flit ID   : 79 | Packet ID : 12 | Src : 8
------------------------------
TIME 71
Router 1 Sending Flit through Outport 1
  Flit ID   : 80 | Packet ID : 13 | Src : 1 | Dest : 3
------------------------------
Router 1 Sending Flit through Outport 4
  Flit ID   : 71 | Packet ID : 11 | Src : 7
------------------------------
Router 7 Sending Flit through Outport 4
  Flit ID   : 76 | Packet ID : 12 | Src : 8
------------------------------
Router 8 Sending Flit through Outport 3
  Flit ID   : 88 | Packet ID : 14 | Src : 8 | Dest : 4
------------------------------
TIME 72
Router 1 Sending Flit through Outport 1
  Flit ID   : 81 | Packet ID : 13 | Src : 1
------------------------------
Router 1 Sending Flit through Outport 4
  Flit ID   : 72 | Packet ID : 11 | Src : 7
------------------------------
Router 7 Sending Flit through Outport 4
  Flit ID   : 77 | Packet ID : 12 | Src : 8
------------------------------
Router 8 Sending Flit through Outport 3
  Flit ID   : 89 | Packet ID : 14 | Src : 8
------------------------------
TIME 73
Router 1 Sending Flit through Outport 1
  Flit ID   : 82 | Packet ID : 13 | Src : 1
------------------------------
Router 1 Sending Flit through Outport 4
  Flit ID   : 73 | Packet ID : 11 | Src : 7
------------------------------
Router 7 Sending Flit through Outport 4
  Flit ID   : 78 | Packet ID : 12 | Src : 8
------------------------------
Router 8 Sending Flit through Outport 3
  Flit ID   : 90 | Packet ID : 14 | Src : 8
------------------------------
TIME 74
Router 1 Sending Flit through Outport 1
  Flit ID   : 83 | Packet ID : 13 | Src : 1
------------------------------
Router 1 Sending Flit through Outport 4
  Flit ID   : 74 | Packet ID : 11 | Src : 7
------------------------------
Router 7 Sending Flit through Outport 4
  Flit ID   : 79 | Packet ID : 12 | Src : 8
------------------------------
Router 8 Sending Flit through Outport 3
  Flit ID   : 91 | Packet ID : 14 | Src : 8
------------------------------
TIME 75
Router 0 Sending Flit through Outport 2
  Flit ID   : 80 | Packet ID : 13 | Src : 1 | Dest : 3
------------------------------
Router 1 Sending Flit through Outport 1
  Flit ID   : 84 | Packet ID : 13 | Src : 1
------------------------------
Router 5 Sending Flit through Outport 1
  Flit ID   : 88 | Packet ID : 14 | Src : 8 | Dest : 4
------------------------------
Router 8 Sending Flit through Outport 3
  Flit ID   : 92 | Packet ID : 14 | Src : 8
------------------------------
TIME 76
Router 0 Sending Flit through Outport 2
  Flit ID   : 81 | Packet ID : 13 | Src : 1
------------------------------
Router 1 Sending Flit through Outport 1
  Flit ID   : 85 | Packet ID : 13 | Src : 1
------------------------------
Router 5 Sending Flit through Outport 1
  Flit ID   : 89 | Packet ID : 14 | Src : 8
------------------------------
TIME 77
Router 0 Sending Flit through Outport 2
  Flit ID   : 82 | Packet ID : 13 | Src : 1
------------------------------
Router 1 Sending Flit through Outport 1
  Flit ID   : 86 | Packet ID : 13 | Src : 1
------------------------------
Router 5 Sending Flit through Outport 1
  Flit ID   : 90 | Packet ID : 14 | Src : 8
------------------------------
TIME 78
Router 0 Sending Flit through Outport 2
  Flit ID   : 83 | Packet ID : 13 | Src : 1
------------------------------
Router 1 Sending Flit through Outport 1
  Flit ID   : 87 | Packet ID : 13 | Src : 1
------------------------------
Router 5 Sending Flit through Outport 1
  Flit ID   : 91 | Packet ID : 14 | Src : 8
------------------------------
TIME 79
 New Packet Generated | Packet ID: 15 | Src: 0 | Dest: 0
  --> Flit ID: 93
  --> Flit ID: 94
  --> Flit ID: 95
  --> Flit ID: 96
  --> Flit ID: 97
  --> Flit ID: 98
  --> Flit ID: 99
  --> Flit ID: 100
Router 0 Sending Flit through Outport 2
  Flit ID   : 84 | Packet ID : 13 | Src : 1
------------------------------
Router 3 Sending Flit through Outport 4
  Flit ID   : 80 | Packet ID : 13 | Src : 1 | Dest : 3
------------------------------
Router 4 Sending Flit through Outport 4
  Flit ID   : 88 | Packet ID : 14 | Src : 8 | Dest : 4
------------------------------
Router 5 Sending Flit through Outport 1
  Flit ID   : 92 | Packet ID : 14 | Src : 8
------------------------------
TIME 80
Router 0 Sending Flit through Outport 2
  Flit ID   : 85 | Packet ID : 13 | Src : 1
------------------------------
Router 3 Sending Flit through Outport 4
  Flit ID   : 81 | Packet ID : 13 | Src : 1
------------------------------
Router 4 Sending Flit through Outport 4
  Flit ID   : 89 | Packet ID : 14 | Src : 8
------------------------------
TIME 81
Router 0 Sending Flit through Outport 2
  Flit ID   : 86 | Packet ID : 13 | Src : 1
------------------------------
Router 3 Sending Flit through Outport 4
  Flit ID   : 82 | Packet ID : 13 | Src : 1
------------------------------
Router 4 Sending Flit through Outport 4
  Flit ID   : 90 | Packet ID : 14 | Src : 8
------------------------------
TIME 82
Router 0 Sending Flit through Outport 2
  Flit ID   : 87 | Packet ID : 13 | Src : 1
------------------------------
Router 3 Sending Flit through Outport 4
  Flit ID   : 83 | Packet ID : 13 | Src : 1
------------------------------
Router 4 Sending Flit through Outport 4
  Flit ID   : 91 | Packet ID : 14 | Src : 8
------------------------------
TIME 83
Router 0 Sending Flit through Outport 4
  Flit ID   : 93 | Packet ID : 15 | Src : 0 | Dest : 0
------------------------------
Router 3 Sending Flit through Outport 4
  Flit ID   : 84 | Packet ID : 13 | Src : 1
------------------------------
Router 4 Sending Flit through Outport 4
  Flit ID   : 92 | Packet ID : 14 | Src : 8
------------------------------
TIME 84
Router 0 Sending Flit through Outport 4
  Flit ID   : 94 | Packet ID : 15 | Src : 0
------------------------------
Router 3 Sending Flit through Outport 4
  Flit ID   : 85 | Packet ID : 13 | Src : 1
------------------------------
TIME 85
Router 0 Sending Flit through Outport 4
  Flit ID   : 95 | Packet ID : 15 | Src : 0
------------------------------
Router 3 Sending Flit through Outport 4
  Flit ID   : 86 | Packet ID : 13 | Src : 1
------------------------------
TIME 86
Router 0 Sending Flit through Outport 4
  Flit ID   : 96 | Packet ID : 15 | Src : 0
------------------------------
Router 3 Sending Flit through Outport 4
  Flit ID   : 87 | Packet ID : 13 | Src : 1
------------------------------
TIME 87
Router 0 Sending Flit through Outport 4
  Flit ID   : 97 | Packet ID : 15 | Src : 0
------------------------------
TIME 88
Router 0 Sending Flit through Outport 4
  Flit ID   : 98 | Packet ID : 15 | Src : 0
------------------------------
TIME 89
Router 0 Sending Flit through Outport 4
  Flit ID   : 99 | Packet ID : 15 | Src : 0
------------------------------
TIME 90
Router 0 Sending Flit through Outport 4
  Flit ID   : 100 | Packet ID : 15 | Src : 0
------------------------------
TIME 91
TIME 92
TIME 93
TIME 94
TIME 95
TIME 96
TIME 97
TIME 98
TIME 99
 New Packet Generated | Packet ID: 16 | Src: 6 | Dest: 0
  --> Flit ID: 101
  --> Flit ID: 102
  --> Flit ID: 103
  --> Flit ID: 104
  --> Flit ID: 105
TIME 100
TIME 101
 New Packet Generated | Packet ID: 17 | Src: 7 | Dest: 3
  --> Flit ID: 106
  --> Flit ID: 107
  --> Flit ID: 108
  --> Flit ID: 109
  --> Flit ID: 110
  --> Flit ID: 111
  --> Flit ID: 112
  --> Flit ID: 113
TIME 102
TIME 103
Router 6 Sending Flit through Outport 3
  Flit ID   : 101 | Packet ID : 16 | Src : 6 | Dest : 0
------------------------------
TIME 104
Router 6 Sending Flit through Outport 3
  Flit ID   : 102 | Packet ID : 16 | Src : 6
------------------------------
TIME 105
Router 6 Sending Flit through Outport 3
  Flit ID   : 103 | Packet ID : 16 | Src : 6
------------------------------
Router 7 Sending Flit through Outport 3
  Flit ID   : 106 | Packet ID : 17 | Src : 7 | Dest : 3
------------------------------
TIME 106
Router 6 Sending Flit through Outport 3
  Flit ID   : 104 | Packet ID : 16 | Src : 6
------------------------------
Router 7 Sending Flit through Outport 3
  Flit ID   : 107 | Packet ID : 17 | Src : 7
------------------------------
TIME 107
 New Packet Generated | Packet ID: 18 | Src: 7 | Dest: 2
  --> Flit ID: 114
  --> Flit ID: 115
  --> Flit ID: 116
  --> Flit ID: 117
  --> Flit ID: 118
Router 3 Sending Flit through Outport 3
  Flit ID   : 101 | Packet ID : 16 | Src : 6 | Dest : 0
------------------------------
Router 6 Sending Flit through Outport 3
  Flit ID   : 105 | Packet ID : 16 | Src : 6
------------------------------
Router 7 Sending Flit through Outport 3
  Flit ID   : 108 | Packet ID : 17 | Src : 7
------------------------------
TIME 108
Router 3 Sending Flit through Outport 3
  Flit ID   : 102 | Packet ID : 16 | Src : 6
------------------------------
Router 7 Sending Flit through Outport 3
  Flit ID   : 109 | Packet ID : 17 | Src : 7
------------------------------
TIME 109
Router 3 Sending Flit through Outport 3
  Flit ID   : 103 | Packet ID : 16 | Src : 6
------------------------------
Router 4 Sending Flit through Outport 1
  Flit ID   : 106 | Packet ID : 17 | Src : 7 | Dest : 3
------------------------------
Router 7 Sending Flit through Outport 3
  Flit ID   : 110 | Packet ID : 17 | Src : 7
------------------------------
TIME 110
 New Packet Generated | Packet ID: 19 | Src: 1 | Dest: 6
  --> Flit ID: 119
  --> Flit ID: 120
  --> Flit ID: 121
  --> Flit ID: 122
  --> Flit ID: 123
  --> Flit ID: 124
  --> Flit ID: 125
  --> Flit ID: 126
 New Packet Generated | Packet ID: 20 | Src: 8 | Dest: 6
  --> Flit ID: 127
  --> Flit ID: 128
  --> Flit ID: 129
  --> Flit ID: 130
  --> Flit ID: 131
Router 3 Sending Flit through Outport 3
  Flit ID   : 104 | Packet ID : 16 | Src : 6
------------------------------
Router 4 Sending Flit through Outport 1
  Flit ID   : 107 | Packet ID : 17 | Src : 7
------------------------------
Router 7 Sending Flit through Outport 3
  Flit ID   : 111 | Packet ID : 17 | Src : 7
------------------------------
TIME 111
Router 0 Sending Flit through Outport 4
  Flit ID   : 101 | Packet ID : 16 | Src : 6 | Dest : 0
------------------------------
Router 3 Sending Flit through Outport 3
  Flit ID   : 105 | Packet ID : 16 | Src : 6
------------------------------
Router 4 Sending Flit through Outport 1
  Flit ID   : 108 | Packet ID : 17 | Src : 7
------------------------------
Router 7 Sending Flit through Outport 0
  Flit ID   : 114 | Packet ID : 18 | Src : 7 | Dest : 2
------------------------------
Router 7 Sending Flit through Outport 3
  Flit ID   : 112 | Packet ID : 17 | Src : 7
------------------------------
TIME 112
Router 0 Sending Flit through Outport 4
  Flit ID   : 102 | Packet ID : 16 | Src : 6
------------------------------
Router 4 Sending Flit through Outport 1
  Flit ID   : 109 | Packet ID : 17 | Src : 7
------------------------------
Router 7 Sending Flit through Outport 0
  Flit ID   : 115 | Packet ID : 18 | Src : 7
------------------------------
TIME 113
Router 0 Sending Flit through Outport 4
  Flit ID   : 103 | Packet ID : 16 | Src : 6
------------------------------
Router 3 Sending Flit through Outport 4
  Flit ID   : 106 | Packet ID : 17 | Src : 7 | Dest : 3
------------------------------
Router 4 Sending Flit through Outport 1
  Flit ID   : 110 | Packet ID : 17 | Src : 7
------------------------------
Router 7 Sending Flit through Outport 3
  Flit ID   : 113 | Packet ID : 17 | Src : 7
------------------------------
TIME 114
Router 0 Sending Flit through Outport 4
  Flit ID   : 104 | Packet ID : 16 | Src : 6
------------------------------
Router 1 Sending Flit through Outport 2
  Flit ID   : 119 | Packet ID : 19 | Src : 1 | Dest : 6
------------------------------
Router 3 Sending Flit through Outport 4
  Flit ID   : 107 | Packet ID : 17 | Src : 7
------------------------------
Router 4 Sending Flit through Outport 1
  Flit ID   : 111 | Packet ID : 17 | Src : 7
------------------------------
Router 7 Sending Flit through Outport 0
  Flit ID   : 116 | Packet ID : 18 | Src : 7
------------------------------
Router 8 Sending Flit through Outport 1
  Flit ID   : 127 | Packet ID : 20 | Src : 8 | Dest : 6
------------------------------
TIME 115
Router 0 Sending Flit through Outport 4
  Flit ID   : 105 | Packet ID : 16 | Src : 6
------------------------------
Router 1 Sending Flit through Outport 2
  Flit ID   : 120 | Packet ID : 19 | Src : 1
------------------------------
Router 3 Sending Flit through Outport 4
  Flit ID   : 108 | Packet ID : 17 | Src : 7
------------------------------
Router 4 Sending Flit through Outport 1
  Flit ID   : 112 | Packet ID : 17 | Src : 7
------------------------------
Router 7 Sending Flit through Outport 0
  Flit ID   : 117 | Packet ID : 18 | Src : 7
------------------------------
Router 8 Sending Flit through Outport 1
  Flit ID   : 128 | Packet ID : 20 | Src : 8
------------------------------
Router 8 Sending Flit through Outport 3
  Flit ID   : 114 | Packet ID : 18 | Src : 7 | Dest : 2
------------------------------
TIME 116
Router 1 Sending Flit through Outport 2
  Flit ID   : 121 | Packet ID : 19 | Src : 1
------------------------------
Router 3 Sending Flit through Outport 4
  Flit ID   : 109 | Packet ID : 17 | Src : 7
------------------------------
Router 4 Sending Flit through Outport 1
  Flit ID   : 113 | Packet ID : 17 | Src : 7
------------------------------
Router 7 Sending Flit through Outport 0
  Flit ID   : 118 | Packet ID : 18 | Src : 7
------------------------------
Router 8 Sending Flit through Outport 1
  Flit ID   : 129 | Packet ID : 20 | Src : 8
------------------------------
Router 8 Sending Flit through Outport 3
  Flit ID   : 115 | Packet ID : 18 | Src : 7
------------------------------
TIME 117
Router 1 Sending Flit through Outport 2
  Flit ID   : 122 | Packet ID : 19 | Src : 1
------------------------------
Router 3 Sending Flit through Outport 4
  Flit ID   : 110 | Packet ID : 17 | Src : 7
------------------------------
Router 8 Sending Flit through Outport 1
  Flit ID   : 130 | Packet ID : 20 | Src : 8
------------------------------
Router 8 Sending Flit through Outport 3
  Flit ID   : 116 | Packet ID : 18 | Src : 7
------------------------------
TIME 118
 New Packet Generated | Packet ID: 21 | Src: 1 | Dest: 5
  --> Flit ID: 132
  --> Flit ID: 133
  --> Flit ID: 134
  --> Flit ID: 135
  --> Flit ID: 136
  --> Flit ID: 137
  --> Flit ID: 138
  --> Flit ID: 139
Router 1 Sending Flit through Outport 2
  Flit ID   : 123 | Packet ID : 19 | Src : 1
------------------------------
Router 3 Sending Flit through Outport 4
  Flit ID   : 111 | Packet ID : 17 | Src : 7
------------------------------
Router 4 Sending Flit through Outport 2
  Flit ID   : 119 | Packet ID : 19 | Src : 1 | Dest : 6
------------------------------
Router 7 Sending Flit through Outport 1
  Flit ID   : 127 | Packet ID : 20 | Src : 8 | Dest : 6
------------------------------
Router 8 Sending Flit through Outport 1
  Flit ID   : 131 | Packet ID : 20 | Src : 8
------------------------------
Router 8 Sending Flit through Outport 3
  Flit ID   : 117 | Packet ID : 18 | Src : 7
------------------------------
TIME 119
Router 1 Sending Flit through Outport 2
  Flit ID   : 124 | Packet ID : 19 | Src : 1
------------------------------
Router 3 Sending Flit through Outport 4
  Flit ID   : 112 | Packet ID : 17 | Src : 7
------------------------------
Router 4 Sending Flit through Outport 2
  Flit ID   : 120 | Packet ID : 19 | Src : 1
------------------------------
Router 5 Sending Flit through Outport 3
  Flit ID   : 114 | Packet ID : 18 | Src : 7 | Dest : 2
------------------------------
Router 7 Sending Flit through Outport 1
  Flit ID   : 128 | Packet ID : 20 | Src : 8
------------------------------
Router 8 Sending Flit through Outport 3
  Flit ID   : 118 | Packet ID : 18 | Src : 7
------------------------------
TIME 120
Router 1 Sending Flit through Outport 2
  Flit ID   : 125 | Packet ID : 19 | Src : 1
------------------------------
Router 3 Sending Flit through Outport 4
  Flit ID   : 113 | Packet ID : 17 | Src : 7
------------------------------
Router 4 Sending Flit through Outport 2
  Flit ID   : 121 | Packet ID : 19 | Src : 1
------------------------------
Router 5 Sending Flit through Outport 3
  Flit ID   : 115 | Packet ID : 18 | Src : 7
------------------------------
Router 7 Sending Flit through Outport 1
  Flit ID   : 129 | Packet ID : 20 | Src : 8
------------------------------
TIME 121
Router 1 Sending Flit through Outport 2
  Flit ID   : 126 | Packet ID : 19 | Src : 1
------------------------------
Router 4 Sending Flit through Outport 2
  Flit ID   : 122 | Packet ID : 19 | Src : 1
------------------------------
Router 5 Sending Flit through Outport 3
  Flit ID   : 116 | Packet ID : 18 | Src : 7
------------------------------
Router 7 Sending Flit through Outport 1
  Flit ID   : 130 | Packet ID : 20 | Src : 8
------------------------------
TIME 122
Router 1 Sending Flit through Outport 0
  Flit ID   : 132 | Packet ID : 21 | Src : 1 | Dest : 5
------------------------------
Router 4 Sending Flit through Outport 2
  Flit ID   : 123 | Packet ID : 19 | Src : 1
------------------------------
Router 5 Sending Flit through Outport 3
  Flit ID   : 117 | Packet ID : 18 | Src : 7
------------------------------
Router 6 Sending Flit through Outport 4
  Flit ID   : 127 | Packet ID : 20 | Src : 8 | Dest : 6
------------------------------
Router 7 Sending Flit through Outport 1
  Flit ID   : 119 | Packet ID : 19 | Src : 1 | Dest : 6
------------------------------
TIME 123
Router 1 Sending Flit through Outport 0
  Flit ID   : 133 | Packet ID : 21 | Src : 1
------------------------------
Router 2 Sending Flit through Outport 4
  Flit ID   : 114 | Packet ID : 18 | Src : 7 | Dest : 2
------------------------------
Router 4 Sending Flit through Outport 2
  Flit ID   : 124 | Packet ID : 19 | Src : 1
------------------------------
Router 5 Sending Flit through Outport 3
  Flit ID   : 118 | Packet ID : 18 | Src : 7
------------------------------
Router 6 Sending Flit through Outport 4
  Flit ID   : 128 | Packet ID : 20 | Src : 8
------------------------------
Router 7 Sending Flit through Outport 1
  Flit ID   : 131 | Packet ID : 20 | Src : 8
------------------------------
TIME 124
Router 1 Sending Flit through Outport 0
  Flit ID   : 134 | Packet ID : 21 | Src : 1
------------------------------
Router 2 Sending Flit through Outport 4
  Flit ID   : 115 | Packet ID : 18 | Src : 7
------------------------------
Router 4 Sending Flit through Outport 2
  Flit ID   : 125 | Packet ID : 19 | Src : 1
------------------------------
Router 6 Sending Flit through Outport 4
  Flit ID   : 129 | Packet ID : 20 | Src : 8
------------------------------
Router 7 Sending Flit through Outport 1
  Flit ID   : 120 | Packet ID : 19 | Src : 1
------------------------------
TIME 125
Router 1 Sending Flit through Outport 0
  Flit ID   : 135 | Packet ID : 21 | Src : 1
------------------------------
Router 2 Sending Flit through Outport 4
  Flit ID   : 116 | Packet ID : 18 | Src : 7
------------------------------
Router 4 Sending Flit through Outport 2
  Flit ID   : 126 | Packet ID : 19 | Src : 1
------------------------------
Router 6 Sending Flit through Outport 4
  Flit ID   : 130 | Packet ID : 20 | Src : 8
------------------------------
Router 7 Sending Flit through Outport 1
  Flit ID   : 121 | Packet ID : 19 | Src : 1
------------------------------
TIME 126
Router 1 Sending Flit through Outport 0
  Flit ID   : 136 | Packet ID : 21 | Src : 1
------------------------------
Router 2 Sending Flit through Outport 2
  Flit ID   : 132 | Packet ID : 21 | Src : 1 | Dest : 5
------------------------------
Router 2 Sending Flit through Outport 4
  Flit ID   : 117 | Packet ID : 18 | Src : 7
------------------------------
Router 6 Sending Flit through Outport 4
  Flit ID   : 119 | Packet ID : 19 | Src : 1 | Dest : 6
------------------------------
Router 7 Sending Flit through Outport 1
  Flit ID   : 122 | Packet ID : 19 | Src : 1
------------------------------
TIME 127
Router 1 Sending Flit through Outport 0
  Flit ID   : 137 | Packet ID : 21 | Src : 1
------------------------------
Router 2 Sending Flit through Outport 2
  Flit ID   : 133 | Packet ID : 21 | Src : 1
------------------------------
Router 2 Sending Flit through Outport 4
  Flit ID   : 118 | Packet ID : 18 | Src : 7
------------------------------
Router 6 Sending Flit through Outport 4
  Flit ID   : 131 | Packet ID : 20 | Src : 8
------------------------------
Router 7 Sending Flit through Outport 1
  Flit ID   : 123 | Packet ID : 19 | Src : 1
------------------------------
TIME 128
Router 1 Sending Flit through Outport 0
  Flit ID   : 138 | Packet ID : 21 | Src : 1
------------------------------
Router 2 Sending Flit through Outport 2
  Flit ID   : 134 | Packet ID : 21 | Src : 1
------------------------------
Router 6 Sending Flit through Outport 4
  Flit ID   : 120 | Packet ID : 19 | Src : 1
------------------------------
Router 7 Sending Flit through Outport 1
  Flit ID   : 124 | Packet ID : 19 | Src : 1
------------------------------
TIME 129
Router 1 Sending Flit through Outport 0
  Flit ID   : 139 | Packet ID : 21 | Src : 1
------------------------------
Router 2 Sending Flit through Outport 2
  Flit ID   : 135 | Packet ID : 21 | Src : 1
------------------------------
Router 6 Sending Flit through Outport 4
  Flit ID   : 121 | Packet ID : 19 | Src : 1
------------------------------
Router 7 Sending Flit through Outport 1
  Flit ID   : 125 | Packet ID : 19 | Src : 1
------------------------------
TIME 130
Router 2 Sending Flit through Outport 2
  Flit ID   : 136 | Packet ID : 21 | Src : 1
------------------------------
Router 5 Sending Flit through Outport 4
  Flit ID   : 132 | Packet ID : 21 | Src : 1 | Dest : 5
------------------------------
Router 6 Sending Flit through Outport 4
  Flit ID   : 122 | Packet ID : 19 | Src : 1
------------------------------
Router 7 Sending Flit through Outport 1
  Flit ID   : 126 | Packet ID : 19 | Src : 1
------------------------------
TIME 131
Router 2 Sending Flit through Outport 2
  Flit ID   : 137 | Packet ID : 21 | Src : 1
------------------------------
Router 5 Sending Flit through Outport 4
  Flit ID   : 133 | Packet ID : 21 | Src : 1
------------------------------
Router 6 Sending Flit through Outport 4
  Flit ID   : 123 | Packet ID : 19 | Src : 1
------------------------------
TIME 132
Router 2 Sending Flit through Outport 2
  Flit ID   : 138 | Packet ID : 21 | Src : 1
------------------------------
Router 5 Sending Flit through Outport 4
  Flit ID   : 134 | Packet ID : 21 | Src : 1
------------------------------
Router 6 Sending Flit through Outport 4
  Flit ID   : 124 | Packet ID : 19 | Src : 1
------------------------------
TIME 133
Router 2 Sending Flit through Outport 2
  Flit ID   : 139 | Packet ID : 21 | Src : 1
------------------------------
Router 5 Sending Flit through Outport 4
  Flit ID   : 135 | Packet ID : 21 | Src : 1
------------------------------
Router 6 Sending Flit through Outport 4
  Flit ID   : 125 | Packet ID : 19 | Src : 1
------------------------------
TIME 134
Router 5 Sending Flit through Outport 4
  Flit ID   : 136 | Packet ID : 21 | Src : 1
------------------------------
Router 6 Sending Flit through Outport 4
  Flit ID   : 126 | Packet ID : 19 | Src : 1
------------------------------
TIME 135
Router 5 Sending Flit through Outport 4
  Flit ID   : 137 | Packet ID : 21 | Src : 1
------------------------------
TIME 136
Router 5 Sending Flit through Outport 4
  Flit ID   : 138 | Packet ID : 21 | Src : 1
------------------------------
TIME 137
Router 5 Sending Flit through Outport 4
  Flit ID   : 139 | Packet ID : 21 | Src : 1
------------------------------
TIME 138
TIME 139
TIME 140
TIME 141
 New Packet Generated | Packet ID: 22 | Src: 2 | Dest: 4
  --> Flit ID: 140
  --> Flit ID: 141
  --> Flit ID: 142
  --> Flit ID: 143
  --> Flit ID: 144
  --> Flit ID: 145
  --> Flit ID: 146
  --> Flit ID: 147
TIME 142
TIME 143
TIME 144
TIME 145
Router 2 Sending Flit through Outport 2
  Flit ID   : 140 | Packet ID : 22 | Src : 2 | Dest : 4
------------------------------
TIME 146
Router 2 Sending Flit through Outport 2
  Flit ID   : 141 | Packet ID : 22 | Src : 2
------------------------------
TIME 147
Router 2 Sending Flit through Outport 2
  Flit ID   : 142 | Packet ID : 22 | Src : 2
------------------------------
TIME 148
Router 2 Sending Flit through Outport 2
  Flit ID   : 143 | Packet ID : 22 | Src : 2
------------------------------
TIME 149
 New Packet Generated | Packet ID: 23 | Src: 3 | Dest: 0
  --> Flit ID: 148
  --> Flit ID: 149
  --> Flit ID: 150
  --> Flit ID: 151
  --> Flit ID: 152
Router 2 Sending Flit through Outport 2
  Flit ID   : 144 | Packet ID : 22 | Src : 2
------------------------------
Router 5 Sending Flit through Outport 1
  Flit ID   : 140 | Packet ID : 22 | Src : 2 | Dest : 4
------------------------------
TIME 150
Router 2 Sending Flit through Outport 2
  Flit ID   : 145 | Packet ID : 22 | Src : 2
------------------------------
Router 5 Sending Flit through Outport 1
  Flit ID   : 141 | Packet ID : 22 | Src : 2
------------------------------
TIME 151
Router 2 Sending Flit through Outport 2
  Flit ID   : 146 | Packet ID : 22 | Src : 2
------------------------------
Router 5 Sending Flit through Outport 1
  Flit ID   : 142 | Packet ID : 22 | Src : 2
------------------------------
TIME 152
Router 2 Sending Flit through Outport 2
  Flit ID   : 147 | Packet ID : 22 | Src : 2
------------------------------
Router 5 Sending Flit through Outport 1
  Flit ID   : 143 | Packet ID : 22 | Src : 2
------------------------------
TIME 153
Router 3 Sending Flit through Outport 3
  Flit ID   : 148 | Packet ID : 23 | Src : 3 | Dest : 0
------------------------------
Router 4 Sending Flit through Outport 4
  Flit ID   : 140 | Packet ID : 22 | Src : 2 | Dest : 4
------------------------------
Router 5 Sending Flit through Outport 1
  Flit ID   : 144 | Packet ID : 22 | Src : 2
------------------------------
TIME 154
Router 3 Sending Flit through Outport 3
  Flit ID   : 149 | Packet ID : 23 | Src : 3
------------------------------
Router 4 Sending Flit through Outport 4
  Flit ID   : 141 | Packet ID : 22 | Src : 2
------------------------------
Router 5 Sending Flit through Outport 1
  Flit ID   : 145 | Packet ID : 22 | Src : 2
------------------------------
TIME 155
Router 3 Sending Flit through Outport 3
  Flit ID   : 150 | Packet ID : 23 | Src : 3
------------------------------
Router 4 Sending Flit through Outport 4
  Flit ID   : 142 | Packet ID : 22 | Src : 2
------------------------------
Router 5 Sending Flit through Outport 1
  Flit ID   : 146 | Packet ID : 22 | Src : 2
------------------------------
TIME 156
Router 3 Sending Flit through Outport 3
  Flit ID   : 151 | Packet ID : 23 | Src : 3
------------------------------
Router 4 Sending Flit through Outport 4
  Flit ID   : 143 | Packet ID : 22 | Src : 2
------------------------------
Router 5 Sending Flit through Outport 1
  Flit ID   : 147 | Packet ID : 22 | Src : 2
------------------------------
TIME 157
Router 0 Sending Flit through Outport 4
  Flit ID   : 148 | Packet ID : 23 | Src : 3 | Dest : 0
------------------------------
Router 3 Sending Flit through Outport 3
  Flit ID   : 152 | Packet ID : 23 | Src : 3
------------------------------
Router 4 Sending Flit through Outport 4
  Flit ID   : 144 | Packet ID : 22 | Src : 2
------------------------------
TIME 158
 New Packet Generated | Packet ID: 24 | Src: 5 | Dest: 6
  --> Flit ID: 153
  --> Flit ID: 154
  --> Flit ID: 155
  --> Flit ID: 156
  --> Flit ID: 157
  --> Flit ID: 158
  --> Flit ID: 159
  --> Flit ID: 160
Router 0 Sending Flit through Outport 4
  Flit ID   : 149 | Packet ID : 23 | Src : 3
------------------------------
Router 4 Sending Flit through Outport 4
  Flit ID   : 145 | Packet ID : 22 | Src : 2
------------------------------
TIME 159
Router 0 Sending Flit through Outport 4
  Flit ID   : 150 | Packet ID : 23 | Src : 3
------------------------------
Router 4 Sending Flit through Outport 4
  Flit ID   : 146 | Packet ID : 22 | Src : 2
------------------------------
TIME 160
Router 0 Sending Flit through Outport 4
  Flit ID   : 151 | Packet ID : 23 | Src : 3
------------------------------
Router 4 Sending Flit through Outport 4
  Flit ID   : 147 | Packet ID : 22 | Src : 2
------------------------------
TIME 161
 New Packet Generated | Packet ID: 25 | Src: 7 | Dest: 8
  --> Flit ID: 161
  --> Flit ID: 162
  --> Flit ID: 163
  --> Flit ID: 164
  --> Flit ID: 165
Router 0 Sending Flit through Outport 4
  Flit ID   : 152 | Packet ID : 23 | Src : 3
------------------------------
TIME 162
Router 5 Sending Flit through Outport 2
  Flit ID   : 153 | Packet ID : 24 | Src : 5 | Dest : 6
------------------------------
TIME 163
Router 5 Sending Flit through Outport 2
  Flit ID   : 154 | Packet ID : 24 | Src : 5
------------------------------
TIME 164
Router 5 Sending Flit through Outport 2
  Flit ID   : 155 | Packet ID : 24 | Src : 5
------------------------------
TIME 165
Router 5 Sending Flit through Outport 2
  Flit ID   : 156 | Packet ID : 24 | Src : 5
------------------------------
Router 7 Sending Flit through Outport 0
  Flit ID   : 161 | Packet ID : 25 | Src : 7 | Dest : 8
------------------------------
TIME 166
 New Packet Generated | Packet ID: 26 | Src: 5 | Dest: 0
  --> Flit ID: 166
  --> Flit ID: 167
  --> Flit ID: 168
  --> Flit ID: 169
  --> Flit ID: 170
  --> Flit ID: 171
  --> Flit ID: 172
  --> Flit ID: 173
Router 5 Sending Flit through Outport 2
  Flit ID   : 157 | Packet ID : 24 | Src : 5
------------------------------
Router 7 Sending Flit through Outport 0
  Flit ID   : 162 | Packet ID : 25 | Src : 7
------------------------------
Router 8 Sending Flit through Outport 1
  Flit ID   : 153 | Packet ID : 24 | Src : 5 | Dest : 6
------------------------------
TIME 167
Router 5 Sending Flit through Outport 2
  Flit ID   : 158 | Packet ID : 24 | Src : 5
------------------------------
Router 7 Sending Flit through Outport 0
  Flit ID   : 163 | Packet ID : 25 | Src : 7
------------------------------
Router 8 Sending Flit through Outport 1
  Flit ID   : 154 | Packet ID : 24 | Src : 5
------------------------------
TIME 168
Router 5 Sending Flit through Outport 2
  Flit ID   : 159 | Packet ID : 24 | Src : 5
------------------------------
Router 7 Sending Flit through Outport 0
  Flit ID   : 164 | Packet ID : 25 | Src : 7
------------------------------
Router 8 Sending Flit through Outport 1
  Flit ID   : 155 | Packet ID : 24 | Src : 5
------------------------------
TIME 169
Router 5 Sending Flit through Outport 2
  Flit ID   : 160 | Packet ID : 24 | Src : 5
------------------------------
Router 7 Sending Flit through Outport 0
  Flit ID   : 165 | Packet ID : 25 | Src : 7
------------------------------
Router 8 Sending Flit through Outport 1
  Flit ID   : 156 | Packet ID : 24 | Src : 5
------------------------------
Router 8 Sending Flit through Outport 4
  Flit ID   : 161 | Packet ID : 25 | Src : 7 | Dest : 8
------------------------------
TIME 170
Router 5 Sending Flit through Outport 1
  Flit ID   : 166 | Packet ID : 26 | Src : 5 | Dest : 0
------------------------------
Router 7 Sending Flit through Outport 1
  Flit ID   : 153 | Packet ID : 24 | Src : 5 | Dest : 6
------------------------------
Router 8 Sending Flit through Outport 1
  Flit ID   : 157 | Packet ID : 24 | Src : 5
------------------------------
Router 8 Sending Flit through Outport 4
  Flit ID   : 162 | Packet ID : 25 | Src : 7
------------------------------
TIME 171
Router 5 Sending Flit through Outport 1
  Flit ID   : 167 | Packet ID : 26 | Src : 5
------------------------------
Router 7 Sending Flit through Outport 1
  Flit ID   : 154 | Packet ID : 24 | Src : 5
------------------------------
Router 8 Sending Flit through Outport 1
  Flit ID   : 158 | Packet ID : 24 | Src : 5
------------------------------
Router 8 Sending Flit through Outport 4
  Flit ID   : 163 | Packet ID : 25 | Src : 7
------------------------------
TIME 172
Router 5 Sending Flit through Outport 1
  Flit ID   : 168 | Packet ID : 26 | Src : 5
------------------------------
Router 7 Sending Flit through Outport 1
  Flit ID   : 155 | Packet ID : 24 | Src : 5
------------------------------
Router 8 Sending Flit through Outport 1
  Flit ID   : 159 | Packet ID : 24 | Src : 5
------------------------------
Router 8 Sending Flit through Outport 4
  Flit ID   : 164 | Packet ID : 25 | Src : 7
------------------------------
TIME 173
Router 5 Sending Flit through Outport 1
  Flit ID   : 169 | Packet ID : 26 | Src : 5
------------------------------
Router 7 Sending Flit through Outport 1
  Flit ID   : 156 | Packet ID : 24 | Src : 5
------------------------------
Router 8 Sending Flit through Outport 1
  Flit ID   : 160 | Packet ID : 24 | Src : 5
------------------------------
Router 8 Sending Flit through Outport 4
  Flit ID   : 165 | Packet ID : 25 | Src : 7
------------------------------
TIME 174
Router 4 Sending Flit through Outport 1
  Flit ID   : 166 | Packet ID : 26 | Src : 5 | Dest : 0
------------------------------
Router 5 Sending Flit through Outport 1
  Flit ID   : 170 | Packet ID : 26 | Src : 5
------------------------------
Router 6 Sending Flit through Outport 4
  Flit ID   : 153 | Packet ID : 24 | Src : 5 | Dest : 6
------------------------------
Router 7 Sending Flit through Outport 1
  Flit ID   : 157 | Packet ID : 24 | Src : 5
------------------------------
TIME 175
 New Packet Generated | Packet ID: 27 | Src: 5 | Dest: 3
  --> Flit ID: 174
  --> Flit ID: 175
  --> Flit ID: 176
  --> Flit ID: 177
  --> Flit ID: 178
Router 4 Sending Flit through Outport 1
  Flit ID   : 167 | Packet ID : 26 | Src : 5
------------------------------
Router 5 Sending Flit through Outport 1
  Flit ID   : 171 | Packet ID : 26 | Src : 5
------------------------------
Router 6 Sending Flit through Outport 4
  Flit ID   : 154 | Packet ID : 24 | Src : 5
------------------------------
Router 7 Sending Flit through Outport 1
  Flit ID   : 158 | Packet ID : 24 | Src : 5
------------------------------
TIME 176
Router 4 Sending Flit through Outport 1
  Flit ID   : 168 | Packet ID : 26 | Src : 5
------------------------------
Router 5 Sending Flit through Outport 1
  Flit ID   : 172 | Packet ID : 26 | Src : 5
------------------------------
Router 6 Sending Flit through Outport 4
  Flit ID   : 155 | Packet ID : 24 | Src : 5
------------------------------
Router 7 Sending Flit through Outport 1
  Flit ID   : 159 | Packet ID : 24 | Src : 5
------------------------------
TIME 177
Router 4 Sending Flit through Outport 1
  Flit ID   : 169 | Packet ID : 26 | Src : 5
------------------------------
Router 5 Sending Flit through Outport 1
  Flit ID   : 173 | Packet ID : 26 | Src : 5
------------------------------
Router 6 Sending Flit through Outport 4
  Flit ID   : 156 | Packet ID : 24 | Src : 5
------------------------------
Router 7 Sending Flit through Outport 1
  Flit ID   : 160 | Packet ID : 24 | Src : 5
------------------------------
TIME 178
Router 3 Sending Flit through Outport 3
  Flit ID   : 166 | Packet ID : 26 | Src : 5 | Dest : 0
------------------------------
Router 4 Sending Flit through Outport 1
  Flit ID   : 170 | Packet ID : 26 | Src : 5
------------------------------
Router 6 Sending Flit through Outport 4
  Flit ID   : 157 | Packet ID : 24 | Src : 5
------------------------------
TIME 179
 New Packet Generated | Packet ID: 28 | Src: 6 | Dest: 4
  --> Flit ID: 179
  --> Flit ID: 180
  --> Flit ID: 181
  --> Flit ID: 182
  --> Flit ID: 183
Router 3 Sending Flit through Outport 3
  Flit ID   : 167 | Packet ID : 26 | Src : 5
------------------------------
Router 4 Sending Flit through Outport 1
  Flit ID   : 171 | Packet ID : 26 | Src : 5
------------------------------
Router 5 Sending Flit through Outport 1
  Flit ID   : 174 | Packet ID : 27 | Src : 5 | Dest : 3
------------------------------
Router 6 Sending Flit through Outport 4
  Flit ID   : 158 | Packet ID : 24 | Src : 5
------------------------------
TIME 180
Router 3 Sending Flit through Outport 3
  Flit ID   : 168 | Packet ID : 26 | Src : 5
------------------------------
Router 4 Sending Flit through Outport 1
  Flit ID   : 172 | Packet ID : 26 | Src : 5
------------------------------
Router 5 Sending Flit through Outport 1
  Flit ID   : 175 | Packet ID : 27 | Src : 5
------------------------------
Router 6 Sending Flit through Outport 4
  Flit ID   : 159 | Packet ID : 24 | Src : 5
------------------------------
TIME 181
Router 3 Sending Flit through Outport 3
  Flit ID   : 169 | Packet ID : 26 | Src : 5
------------------------------
Router 4 Sending Flit through Outport 1
  Flit ID   : 173 | Packet ID : 26 | Src : 5
------------------------------
Router 5 Sending Flit through Outport 1
  Flit ID   : 176 | Packet ID : 27 | Src : 5
------------------------------
Router 6 Sending Flit through Outport 4
  Flit ID   : 160 | Packet ID : 24 | Src : 5
------------------------------
TIME 182
Router 0 Sending Flit through Outport 4
  Flit ID   : 166 | Packet ID : 26 | Src : 5 | Dest : 0
------------------------------
Router 3 Sending Flit through Outport 3
  Flit ID   : 170 | Packet ID : 26 | Src : 5
------------------------------
Router 5 Sending Flit through Outport 1
  Flit ID   : 177 | Packet ID : 27 | Src : 5
------------------------------
TIME 183
Router 0 Sending Flit through Outport 4
  Flit ID   : 167 | Packet ID : 26 | Src : 5
------------------------------
Router 3 Sending Flit through Outport 3
  Flit ID   : 171 | Packet ID : 26 | Src : 5
------------------------------
Router 4 Sending Flit through Outport 1
  Flit ID   : 174 | Packet ID : 27 | Src : 5 | Dest : 3
------------------------------
Router 5 Sending Flit through Outport 1
  Flit ID   : 178 | Packet ID : 27 | Src : 5
------------------------------
Router 6 Sending Flit through Outport 0
  Flit ID   : 179 | Packet ID : 28 | Src : 6 | Dest : 4
------------------------------
TIME 184
Router 0 Sending Flit through Outport 4
  Flit ID   : 168 | Packet ID : 26 | Src : 5
------------------------------
Router 3 Sending Flit through Outport 3
  Flit ID   : 172 | Packet ID : 26 | Src : 5
------------------------------
Router 4 Sending Flit through Outport 1
  Flit ID   : 175 | Packet ID : 27 | Src : 5
------------------------------
Router 6 Sending Flit through Outport 0
  Flit ID   : 180 | Packet ID : 28 | Src : 6
------------------------------
TIME 185
Router 0 Sending Flit through Outport 4
  Flit ID   : 169 | Packet ID : 26 | Src : 5
------------------------------
Router 3 Sending Flit through Outport 3
  Flit ID   : 173 | Packet ID : 26 | Src : 5
------------------------------
Router 4 Sending Flit through Outport 1
  Flit ID   : 176 | Packet ID : 27 | Src : 5
------------------------------
Router 6 Sending Flit through Outport 0
  Flit ID   : 181 | Packet ID : 28 | Src : 6
------------------------------
TIME 186
Router 0 Sending Flit through Outport 4
  Flit ID   : 170 | Packet ID : 26 | Src : 5
------------------------------
Router 4 Sending Flit through Outport 1
  Flit ID   : 177 | Packet ID : 27 | Src : 5
------------------------------
Router 6 Sending Flit through Outport 0
  Flit ID   : 182 | Packet ID : 28 | Src : 6
------------------------------
TIME 187
 New Packet Generated | Packet ID: 29 | Src: 3 | Dest: 2
  --> Flit ID: 184
  --> Flit ID: 185
  --> Flit ID: 186
  --> Flit ID: 187
  --> Flit ID: 188
  --> Flit ID: 189
  --> Flit ID: 190
  --> Flit ID: 191
Router 0 Sending Flit through Outport 4
  Flit ID   : 171 | Packet ID : 26 | Src : 5
------------------------------
Router 3 Sending Flit through Outport 4
  Flit ID   : 174 | Packet ID : 27 | Src : 5 | Dest : 3
------------------------------
Router 4 Sending Flit through Outport 1
  Flit ID   : 178 | Packet ID : 27 | Src : 5
------------------------------
Router 6 Sending Flit through Outport 0
  Flit ID   : 183 | Packet ID : 28 | Src : 6
------------------------------
Router 7 Sending Flit through Outport 3
  Flit ID   : 179 | Packet ID : 28 | Src : 6 | Dest : 4
------------------------------
TIME 188
 New Packet Generated | Packet ID: 30 | Src: 7 | Dest: 1
  --> Flit ID: 192
  --> Flit ID: 193
  --> Flit ID: 194
  --> Flit ID: 195
  --> Flit ID: 196
Router 0 Sending Flit through Outport 4
  Flit ID   : 172 | Packet ID : 26 | Src : 5
------------------------------
Router 3 Sending Flit through Outport 4
  Flit ID   : 175 | Packet ID : 27 | Src : 5
------------------------------
Router 7 Sending Flit through Outport 3
  Flit ID   : 180 | Packet ID : 28 | Src : 6
------------------------------
TIME 189
Router 0 Sending Flit through Outport 4
  Flit ID   : 173 | Packet ID : 26 | Src : 5
------------------------------
Router 3 Sending Flit through Outport 4
  Flit ID   : 176 | Packet ID : 27 | Src : 5
------------------------------
Router 7 Sending Flit through Outport 3
  Flit ID   : 181 | Packet ID : 28 | Src : 6
------------------------------
TIME 190
Router 3 Sending Flit through Outport 4
  Flit ID   : 177 | Packet ID : 27 | Src : 5
------------------------------
Router 7 Sending Flit through Outport 3
  Flit ID   : 182 | Packet ID : 28 | Src : 6
------------------------------
TIME 191
 New Packet Generated | Packet ID: 31 | Src: 1 | Dest: 4
  --> Flit ID: 197
  --> Flit ID: 198
  --> Flit ID: 199
  --> Flit ID: 200
  --> Flit ID: 201
Router 3 Sending Flit through Outport 0
  Flit ID   : 184 | Packet ID : 29 | Src : 3 | Dest : 2
------------------------------
Router 3 Sending Flit through Outport 4
  Flit ID   : 178 | Packet ID : 27 | Src : 5
------------------------------
Router 4 Sending Flit through Outport 4
  Flit ID   : 179 | Packet ID : 28 | Src : 6 | Dest : 4
------------------------------
Router 7 Sending Flit through Outport 3
  Flit ID   : 183 | Packet ID : 28 | Src : 6
------------------------------
TIME 192
Router 3 Sending Flit through Outport 0
  Flit ID   : 185 | Packet ID : 29 | Src : 3
------------------------------
Router 4 Sending Flit through Outport 4
  Flit ID   : 180 | Packet ID : 28 | Src : 6
------------------------------
Router 7 Sending Flit through Outport 3
  Flit ID   : 192 | Packet ID : 30 | Src : 7 | Dest : 1
------------------------------
TIME 193
Router 3 Sending Flit through Outport 0
  Flit ID   : 186 | Packet ID : 29 | Src : 3
------------------------------
Router 4 Sending Flit through Outport 4
  Flit ID   : 181 | Packet ID : 28 | Src : 6
------------------------------
Router 7 Sending Flit through Outport 3
  Flit ID   : 193 | Packet ID : 30 | Src : 7
------------------------------
TIME 194
Router 3 Sending Flit through Outport 0
  Flit ID   : 187 | Packet ID : 29 | Src : 3
------------------------------
Router 4 Sending Flit through Outport 4
  Flit ID   : 182 | Packet ID : 28 | Src : 6
------------------------------
Router 7 Sending Flit through Outport 3
  Flit ID   : 194 | Packet ID : 30 | Src : 7
------------------------------
TIME 195
Router 1 Sending Flit through Outport 2
  Flit ID   : 197 | Packet ID : 31 | Src : 1 | Dest : 4
------------------------------
Router 3 Sending Flit through Outport 0
  Flit ID   : 188 | Packet ID : 29 | Src : 3
------------------------------
Router 4 Sending Flit through Outport 0
  Flit ID   : 184 | Packet ID : 29 | Src : 3 | Dest : 2
------------------------------
Router 4 Sending Flit through Outport 4
  Flit ID   : 183 | Packet ID : 28 | Src : 6
------------------------------
Router 7 Sending Flit through Outport 3
  Flit ID   : 195 | Packet ID : 30 | Src : 7
------------------------------
TIME 196
Router 1 Sending Flit through Outport 2
  Flit ID   : 198 | Packet ID : 31 | Src : 1
------------------------------
Router 3 Sending Flit through Outport 0
  Flit ID   : 189 | Packet ID : 29 | Src : 3
------------------------------
Router 4 Sending Flit through Outport 0
  Flit ID   : 185 | Packet ID : 29 | Src : 3
------------------------------
Router 4 Sending Flit through Outport 3
  Flit ID   : 192 | Packet ID : 30 | Src : 7 | Dest : 1
------------------------------
Router 7 Sending Flit through Outport 3
  Flit ID   : 196 | Packet ID : 30 | Src : 7
------------------------------
TIME 197
 New Packet Generated | Packet ID: 32 | Src: 0 | Dest: 0
  --> Flit ID: 202
  --> Flit ID: 203
  --> Flit ID: 204
  --> Flit ID: 205
  --> Flit ID: 206
Router 1 Sending Flit through Outport 2
  Flit ID   : 199 | Packet ID : 31 | Src : 1
------------------------------
Router 3 Sending Flit through Outport 0
  Flit ID   : 190 | Packet ID : 29 | Src : 3
------------------------------
Router 4 Sending Flit through Outport 0
  Flit ID   : 186 | Packet ID : 29 | Src : 3
------------------------------
Router 4 Sending Flit through Outport 3
  Flit ID   : 193 | Packet ID : 30 | Src : 7
------------------------------
TIME 198
 New Packet Generated | Packet ID: 33 | Src: 6 | Dest: 0
  --> Flit ID: 207
  --> Flit ID: 208
  --> Flit ID: 209
  --> Flit ID: 210
  --> Flit ID: 211
  --> Flit ID: 212
  --> Flit ID: 213
  --> Flit ID: 214
Router 1 Sending Flit through Outport 2
  Flit ID   : 200 | Packet ID : 31 | Src : 1
------------------------------
Router 3 Sending Flit through Outport 0
  Flit ID   : 191 | Packet ID : 29 | Src : 3
------------------------------
Router 4 Sending Flit through Outport 0
  Flit ID   : 187 | Packet ID : 29 | Src : 3
------------------------------
Router 4 Sending Flit through Outport 3
  Flit ID   : 194 | Packet ID : 30 | Src : 7
------------------------------
TIME 199
Router 1 Sending Flit through Outport 2
  Flit ID   : 201 | Packet ID : 31 | Src : 1
------------------------------
Router 4 Sending Flit through Outport 0
  Flit ID   : 188 | Packet ID : 29 | Src : 3
------------------------------
Router 4 Sending Flit through Outport 3
  Flit ID   : 195 | Packet ID : 30 | Src : 7
------------------------------
Router 4 Sending Flit through Outport 4
  Flit ID   : 197 | Packet ID : 31 | Src : 1 | Dest : 4
------------------------------
Router 5 Sending Flit through Outport 3
  Flit ID   : 184 | Packet ID : 29 | Src : 3 | Dest : 2
------------------------------
TIME 200
Router 1 Sending Flit through Outport 4
  Flit ID   : 192 | Packet ID : 30 | Src : 7 | Dest : 1
------------------------------
Router 4 Sending Flit through Outport 0
  Flit ID   : 189 | Packet ID : 29 | Src : 3
------------------------------
Router 4 Sending Flit through Outport 3
  Flit ID   : 196 | Packet ID : 30 | Src : 7
------------------------------
Router 4 Sending Flit through Outport 4
  Flit ID   : 198 | Packet ID : 31 | Src : 1
------------------------------
Router 5 Sending Flit through Outport 3
  Flit ID   : 185 | Packet ID : 29 | Src : 3
------------------------------
TIME 201
Router 0 Sending Flit through Outport 4
  Flit ID   : 202 | Packet ID : 32 | Src : 0 | Dest : 0
------------------------------
Router 1 Sending Flit through Outport 4
  Flit ID   : 193 | Packet ID : 30 | Src : 7
------------------------------
Router 4 Sending Flit through Outport 0
  Flit ID   : 190 | Packet ID : 29 | Src : 3
------------------------------
Router 4 Sending Flit through Outport 4
  Flit ID   : 199 | Packet ID : 31 | Src : 1
------------------------------
Router 5 Sending Flit through Outport 3
  Flit ID   : 186 | Packet ID : 29 | Src : 3
------------------------------
TIME 202
Router 0 Sending Flit through Outport 4
  Flit ID   : 203 | Packet ID : 32 | Src : 0
------------------------------
Router 1 Sending Flit through Outport 4
  Flit ID   : 194 | Packet ID : 30 | Src : 7
------------------------------
Router 4 Sending Flit through Outport 0
  Flit ID   : 191 | Packet ID : 29 | Src : 3
------------------------------
Router 4 Sending Flit through Outport 4
  Flit ID   : 200 | Packet ID : 31 | Src : 1
------------------------------
Router 5 Sending Flit through Outport 3
  Flit ID   : 187 | Packet ID : 29 | Src : 3
------------------------------
Router 6 Sending Flit through Outport 3
  Flit ID   : 207 | Packet ID : 33 | Src : 6 | Dest : 0
------------------------------
TIME 203
Router 0 Sending Flit through Outport 4
  Flit ID   : 204 | Packet ID : 32 | Src : 0
------------------------------
Router 1 Sending Flit through Outport 4
  Flit ID   : 195 | Packet ID : 30 | Src : 7
------------------------------
Router 2 Sending Flit through Outport 4
  Flit ID   : 184 | Packet ID : 29 | Src : 3 | Dest : 2
------------------------------
Router 4 Sending Flit through Outport 4
  Flit ID   : 201 | Packet ID : 31 | Src : 1
------------------------------
Router 5 Sending Flit through Outport 3
  Flit ID   : 188 | Packet ID : 29 | Src : 3
------------------------------
Router 6 Sending Flit through Outport 3
  Flit ID   : 208 | Packet ID : 33 | Src : 6
------------------------------
TIME 204
Router 0 Sending Flit through Outport 4
  Flit ID   : 205 | Packet ID : 32 | Src : 0
------------------------------
Router 1 Sending Flit through Outport 4
  Flit ID   : 196 | Packet ID : 30 | Src : 7
------------------------------
Router 2 Sending Flit through Outport 4
  Flit ID   : 185 | Packet ID : 29 | Src : 3
------------------------------
Router 5 Sending Flit through Outport 3
  Flit ID   : 189 | Packet ID : 29 | Src : 3
------------------------------
Router 6 Sending Flit through Outport 3
  Flit ID   : 209 | Packet ID : 33 | Src : 6
------------------------------
TIME 205
Router 0 Sending Flit through Outport 4
  Flit ID   : 206 | Packet ID : 32 | Src : 0
------------------------------
Router 2 Sending Flit through Outport 4
  Flit ID   : 186 | Packet ID : 29 | Src : 3
------------------------------
Router 5 Sending Flit through Outport 3
  Flit ID   : 190 | Packet ID : 29 | Src : 3
------------------------------
Router 6 Sending Flit through Outport 3
  Flit ID   : 210 | Packet ID : 33 | Src : 6
------------------------------
TIME 206
Router 2 Sending Flit through Outport 4
  Flit ID   : 187 | Packet ID : 29 | Src : 3
------------------------------
Router 3 Sending Flit through Outport 3
  Flit ID   : 207 | Packet ID : 33 | Src : 6 | Dest : 0
------------------------------
Router 5 Sending Flit through Outport 3
  Flit ID   : 191 | Packet ID : 29 | Src : 3
------------------------------
Router 6 Sending Flit through Outport 3
  Flit ID   : 211 | Packet ID : 33 | Src : 6
------------------------------
TIME 207
Router 2 Sending Flit through Outport 4
  Flit ID   : 188 | Packet ID : 29 | Src : 3
------------------------------
Router 3 Sending Flit through Outport 3
  Flit ID   : 208 | Packet ID : 33 | Src : 6
------------------------------
Router 6 Sending Flit through Outport 3
  Flit ID   : 212 | Packet ID : 33 | Src : 6
------------------------------
TIME 208
 New Packet Generated | Packet ID: 34 | Src: 0 | Dest: 5
  --> Flit ID: 215
  --> Flit ID: 216
  --> Flit ID: 217
  --> Flit ID: 218
  --> Flit ID: 219
  --> Flit ID: 220
  --> Flit ID: 221
  --> Flit ID: 222
Router 2 Sending Flit through Outport 4
  Flit ID   : 189 | Packet ID : 29 | Src : 3
------------------------------
Router 3 Sending Flit through Outport 3
  Flit ID   : 209 | Packet ID : 33 | Src : 6
------------------------------
Router 6 Sending Flit through Outport 3
  Flit ID   : 213 | Packet ID : 33 | Src : 6
------------------------------
TIME 209
Router 2 Sending Flit through Outport 4
  Flit ID   : 190 | Packet ID : 29 | Src : 3
------------------------------
Router 3 Sending Flit through Outport 3
  Flit ID   : 210 | Packet ID : 33 | Src : 6
------------------------------
Router 6 Sending Flit through Outport 3
  Flit ID   : 214 | Packet ID : 33 | Src : 6
------------------------------
TIME 210
Router 0 Sending Flit through Outport 4
  Flit ID   : 207 | Packet ID : 33 | Src : 6 | Dest : 0
------------------------------
Router 2 Sending Flit through Outport 4
  Flit ID   : 191 | Packet ID : 29 | Src : 3
------------------------------
Router 3 Sending Flit through Outport 3
  Flit ID   : 211 | Packet ID : 33 | Src : 6
------------------------------
TIME 211
Router 0 Sending Flit through Outport 4
  Flit ID   : 208 | Packet ID : 33 | Src : 6
------------------------------
Router 3 Sending Flit through Outport 3
  Flit ID   : 212 | Packet ID : 33 | Src : 6
------------------------------
TIME 212
Router 0 Sending Flit through Outport 2
  Flit ID   : 215 | Packet ID : 34 | Src : 0 | Dest : 5
------------------------------
Router 0 Sending Flit through Outport 4
  Flit ID   : 209 | Packet ID : 33 | Src : 6
------------------------------
Router 3 Sending Flit through Outport 3
  Flit ID   : 213 | Packet ID : 33 | Src : 6
------------------------------
TIME 213
 New Packet Generated | Packet ID: 35 | Src: 2 | Dest: 5
  --> Flit ID: 223
  --> Flit ID: 224
  --> Flit ID: 225
  --> Flit ID: 226
  --> Flit ID: 227
  --> Flit ID: 228
  --> Flit ID: 229
  --> Flit ID: 230
Router 0 Sending Flit through Outport 2
  Flit ID   : 216 | Packet ID : 34 | Src : 0
------------------------------
Router 0 Sending Flit through Outport 4
  Flit ID   : 210 | Packet ID : 33 | Src : 6
------------------------------
Router 3 Sending Flit through Outport 3
[...]
  Flit ID   : 9390 | Packet ID : 1441 | Src : 2
------------------------------
Router 4 Sending Flit through Outport 4
  Flit ID   : 9385 | Packet ID : 1440 | Src : 6
------------------------------
Router 5 Sending Flit through Outport 2
  Flit ID   : 9408 | Packet ID : 1443 | Src : 5
------------------------------
Router 6 Sending Flit through Outport 4
  Flit ID   : 9371 | Packet ID : 1438 | Src : 8
------------------------------
Router 8 Sending Flit through Outport 1
  Flit ID   : 9404 | Packet ID : 1443 | Src : 5
------------------------------
TIME 8005
Router 1 Sending Flit through Outport 4
  Flit ID   : 9412 | Packet ID : 1444 | Src : 4
------------------------------
Router 3 Sending Flit through Outport 4
  Flit ID   : 9387 | Packet ID : 1441 | Src : 2
------------------------------
Router 4 Sending Flit through Outport 0
  Flit ID   : 9416 | Packet ID : 1445 | Src : 4
------------------------------
Router 4 Sending Flit through Outport 1
  Flit ID   : 9391 | Packet ID : 1441 | Src : 2
------------------------------
Router 5 Sending Flit through Outport 2
  Flit ID   : 9409 | Packet ID : 1443 | Src : 5
------------------------------
Router 6 Sending Flit through Outport 4
  Flit ID   : 9396 | Packet ID : 1442 | Src : 3
------------------------------
Router 8 Sending Flit through Outport 1
  Flit ID   : 9405 | Packet ID : 1443 | Src : 5
------------------------------
TIME 8006
Router 1 Sending Flit through Outport 4
  Flit ID   : 9413 | Packet ID : 1444 | Src : 4
------------------------------
Router 3 Sending Flit through Outport 4
  Flit ID   : 9388 | Packet ID : 1441 | Src : 2
------------------------------
Router 4 Sending Flit through Outport 0
  Flit ID   : 9417 | Packet ID : 1445 | Src : 4
------------------------------
Router 4 Sending Flit through Outport 1
  Flit ID   : 9392 | Packet ID : 1441 | Src : 2
------------------------------
Router 6 Sending Flit through Outport 4
  Flit ID   : 9372 | Packet ID : 1438 | Src : 8
------------------------------
Router 7 Sending Flit through Outport 1
  Flit ID   : 9402 | Packet ID : 1443 | Src : 5 | Dest : 6
------------------------------
Router 8 Sending Flit through Outport 1
  Flit ID   : 9406 | Packet ID : 1443 | Src : 5
------------------------------
TIME 8007
Router 1 Sending Flit through Outport 4
  Flit ID   : 9414 | Packet ID : 1444 | Src : 4
------------------------------
Router 3 Sending Flit through Outport 4
  Flit ID   : 9389 | Packet ID : 1441 | Src : 2
------------------------------
Router 4 Sending Flit through Outport 0
  Flit ID   : 9418 | Packet ID : 1445 | Src : 4
------------------------------
Router 4 Sending Flit through Outport 1
  Flit ID   : 9393 | Packet ID : 1441 | Src : 2
------------------------------
Router 6 Sending Flit through Outport 4
  Flit ID   : 9397 | Packet ID : 1442 | Src : 3
------------------------------
Router 7 Sending Flit through Outport 1
  Flit ID   : 9403 | Packet ID : 1443 | Src : 5
------------------------------
Router 8 Sending Flit through Outport 1
  Flit ID   : 9407 | Packet ID : 1443 | Src : 5
------------------------------
TIME 8008
Router 3 Sending Flit through Outport 4
  Flit ID   : 9390 | Packet ID : 1441 | Src : 2
------------------------------
Router 4 Sending Flit through Outport 0
  Flit ID   : 9419 | Packet ID : 1445 | Src : 4
------------------------------
Router 5 Sending Flit through Outport 4
  Flit ID   : 9415 | Packet ID : 1445 | Src : 4 | Dest : 5
------------------------------
Router 6 Sending Flit through Outport 4
  Flit ID   : 9398 | Packet ID : 1442 | Src : 3
------------------------------
Router 7 Sending Flit through Outport 1
  Flit ID   : 9404 | Packet ID : 1443 | Src : 5
------------------------------
Router 8 Sending Flit through Outport 1
  Flit ID   : 9408 | Packet ID : 1443 | Src : 5
------------------------------
TIME 8009
Router 3 Sending Flit through Outport 4
  Flit ID   : 9391 | Packet ID : 1441 | Src : 2
------------------------------
Router 5 Sending Flit through Outport 4
  Flit ID   : 9416 | Packet ID : 1445 | Src : 4
------------------------------
Router 6 Sending Flit through Outport 4
  Flit ID   : 9399 | Packet ID : 1442 | Src : 3
------------------------------
Router 7 Sending Flit through Outport 1
  Flit ID   : 9405 | Packet ID : 1443 | Src : 5
------------------------------
Router 8 Sending Flit through Outport 1
  Flit ID   : 9409 | Packet ID : 1443 | Src : 5
------------------------------
TIME 8010
Router 3 Sending Flit through Outport 4
  Flit ID   : 9392 | Packet ID : 1441 | Src : 2
------------------------------
Router 5 Sending Flit through Outport 4
  Flit ID   : 9417 | Packet ID : 1445 | Src : 4
------------------------------
Router 6 Sending Flit through Outport 4
  Flit ID   : 9402 | Packet ID : 1443 | Src : 5 | Dest : 6
------------------------------
Router 7 Sending Flit through Outport 1
  Flit ID   : 9406 | Packet ID : 1443 | Src : 5
------------------------------
TIME 8011
Router 3 Sending Flit through Outport 4
  Flit ID   : 9393 | Packet ID : 1441 | Src : 2
------------------------------
Router 5 Sending Flit through Outport 4
  Flit ID   : 9418 | Packet ID : 1445 | Src : 4
------------------------------
Router 6 Sending Flit through Outport 4
  Flit ID   : 9400 | Packet ID : 1442 | Src : 3
------------------------------
Router 7 Sending Flit through Outport 1
  Flit ID   : 9407 | Packet ID : 1443 | Src : 5
------------------------------
TIME 8012
 New Packet Generated | Packet ID: 1446 | Src: 3 | Dest: 6
  --> Flit ID: 9420
  --> Flit ID: 9421
  --> Flit ID: 9422
  --> Flit ID: 9423
  --> Flit ID: 9424
  --> Flit ID: 9425
  --> Flit ID: 9426
  --> Flit ID: 9427
Router 5 Sending Flit through Outport 4
  Flit ID   : 9419 | Packet ID : 1445 | Src : 4
------------------------------
Router 6 Sending Flit through Outport 4
  Flit ID   : 9403 | Packet ID : 1443 | Src : 5
------------------------------
Router 7 Sending Flit through Outport 1
  Flit ID   : 9408 | Packet ID : 1443 | Src : 5
------------------------------
TIME 8013
Router 6 Sending Flit through Outport 4
  Flit ID   : 9401 | Packet ID : 1442 | Src : 3
------------------------------
Router 7 Sending Flit through Outport 1
  Flit ID   : 9409 | Packet ID : 1443 | Src : 5
------------------------------
TIME 8014
Router 6 Sending Flit through Outport 4
  Flit ID   : 9404 | Packet ID : 1443 | Src : 5
------------------------------
TIME 8015
Router 6 Sending Flit through Outport 4
  Flit ID   : 9405 | Packet ID : 1443 | Src : 5
------------------------------
TIME 8016
 New Packet Generated | Packet ID: 1447 | Src: 1 | Dest: 1
  --> Flit ID: 9428
  --> Flit ID: 9429
  --> Flit ID: 9430
  --> Flit ID: 9431
  --> Flit ID: 9432
 New Packet Generated | Packet ID: 1448 | Src: 7 | Dest: 8
  --> Flit ID: 9433
  --> Flit ID: 9434
  --> Flit ID: 9435
  --> Flit ID: 9436
  --> Flit ID: 9437
  --> Flit ID: 9438
  --> Flit ID: 9439
  --> Flit ID: 9440
Router 3 Sending Flit through Outport 2
  Flit ID   : 9420 | Packet ID : 1446 | Src : 3 | Dest : 6
------------------------------
Router 6 Sending Flit through Outport 4
  Flit ID   : 9406 | Packet ID : 1443 | Src : 5
------------------------------
TIME 8017
Router 3 Sending Flit through Outport 2
  Flit ID   : 9421 | Packet ID : 1446 | Src : 3
------------------------------
Router 6 Sending Flit through Outport 4
  Flit ID   : 9407 | Packet ID : 1443 | Src : 5
------------------------------
TIME 8018
Router 3 Sending Flit through Outport 2
  Flit ID   : 9422 | Packet ID : 1446 | Src : 3
------------------------------
Router 6 Sending Flit through Outport 4
  Flit ID   : 9408 | Packet ID : 1443 | Src : 5
------------------------------
TIME 8019
 New Packet Generated | Packet ID: 1449 | Src: 6 | Dest: 8
  --> Flit ID: 9441
  --> Flit ID: 9442
  --> Flit ID: 9443
  --> Flit ID: 9444
  --> Flit ID: 9445
  --> Flit ID: 9446
  --> Flit ID: 9447
  --> Flit ID: 9448
Router 3 Sending Flit through Outport 2
  Flit ID   : 9423 | Packet ID : 1446 | Src : 3
------------------------------
Router 6 Sending Flit through Outport 4
  Flit ID   : 9409 | Packet ID : 1443 | Src : 5
------------------------------
TIME 8020
Router 1 Sending Flit through Outport 4
  Flit ID   : 9428 | Packet ID : 1447 | Src : 1 | Dest : 1
------------------------------
Router 3 Sending Flit through Outport 2
  Flit ID   : 9424 | Packet ID : 1446 | Src : 3
------------------------------
Router 6 Sending Flit through Outport 4
  Flit ID   : 9420 | Packet ID : 1446 | Src : 3 | Dest : 6
------------------------------
Router 7 Sending Flit through Outport 0
  Flit ID   : 9433 | Packet ID : 1448 | Src : 7 | Dest : 8
------------------------------
TIME 8021
 New Packet Generated | Packet ID: 1450 | Src: 4 | Dest: 5
  --> Flit ID: 9449
  --> Flit ID: 9450
  --> Flit ID: 9451
  --> Flit ID: 9452
  --> Flit ID: 9453
  --> Flit ID: 9454
  --> Flit ID: 9455
  --> Flit ID: 9456
Router 1 Sending Flit through Outport 4
  Flit ID   : 9429 | Packet ID : 1447 | Src : 1
------------------------------
Router 3 Sending Flit through Outport 2
  Flit ID   : 9425 | Packet ID : 1446 | Src : 3
------------------------------
Router 6 Sending Flit through Outport 4
  Flit ID   : 9421 | Packet ID : 1446 | Src : 3
------------------------------
Router 7 Sending Flit through Outport 0
  Flit ID   : 9434 | Packet ID : 1448 | Src : 7
------------------------------
TIME 8022
Draining remaining packets ...
Router 1 Sending Flit through Outport 4
  Flit ID   : 9430 | Packet ID : 1447 | Src : 1
------------------------------
Router 3 Sending Flit through Outport 2
  Flit ID   : 9426 | Packet ID : 1446 | Src : 3
------------------------------
Router 6 Sending Flit through Outport 4
  Flit ID   : 9422 | Packet ID : 1446 | Src : 3
------------------------------
Router 7 Sending Flit through Outport 0
  Flit ID   : 9435 | Packet ID : 1448 | Src : 7
------------------------------
TIME 8023
Router 1 Sending Flit through Outport 4
  Flit ID   : 9431 | Packet ID : 1447 | Src : 1
------------------------------
Router 3 Sending Flit through Outport 2
  Flit ID   : 9427 | Packet ID : 1446 | Src : 3
------------------------------
Router 6 Sending Flit through Outport 0
  Flit ID   : 9441 | Packet ID : 1449 | Src : 6 | Dest : 8
------------------------------
Router 6 Sending Flit through Outport 4
  Flit ID   : 9423 | Packet ID : 1446 | Src : 3
------------------------------
Router 7 Sending Flit through Outport 0
  Flit ID   : 9436 | Packet ID : 1448 | Src : 7
------------------------------
TIME 8024
Router 1 Sending Flit through Outport 4
  Flit ID   : 9432 | Packet ID : 1447 | Src : 1
------------------------------
Router 6 Sending Flit through Outport 0
  Flit ID   : 9442 | Packet ID : 1449 | Src : 6
------------------------------
Router 6 Sending Flit through Outport 4
  Flit ID   : 9424 | Packet ID : 1446 | Src : 3
------------------------------
Router 7 Sending Flit through Outport 0
  Flit ID   : 9437 | Packet ID : 1448 | Src : 7
------------------------------
Router 8 Sending Flit through Outport 4
  Flit ID   : 9433 | Packet ID : 1448 | Src : 7 | Dest : 8
------------------------------
TIME 8025
Router 4 Sending Flit through Outport 0
  Flit ID   : 9449 | Packet ID : 1450 | Src : 4 | Dest : 5
------------------------------
Router 6 Sending Flit through Outport 0
  Flit ID   : 9443 | Packet ID : 1449 | Src : 6
------------------------------
Router 6 Sending Flit through Outport 4
  Flit ID   : 9425 | Packet ID : 1446 | Src : 3
------------------------------
Router 7 Sending Flit through Outport 0
  Flit ID   : 9438 | Packet ID : 1448 | Src : 7
------------------------------
Router 8 Sending Flit through Outport 4
  Flit ID   : 9434 | Packet ID : 1448 | Src : 7
------------------------------
TIME 8026
Router 4 Sending Flit through Outport 0
  Flit ID   : 9450 | Packet ID : 1450 | Src : 4
------------------------------
Router 6 Sending Flit through Outport 0
  Flit ID   : 9444 | Packet ID : 1449 | Src : 6
------------------------------
Router 6 Sending Flit through Outport 4
  Flit ID   : 9426 | Packet ID : 1446 | Src : 3
------------------------------
Router 7 Sending Flit through Outport 0
  Flit ID   : 9439 | Packet ID : 1448 | Src : 7
------------------------------
Router 8 Sending Flit through Outport 4
  Flit ID   : 9435 | Packet ID : 1448 | Src : 7
------------------------------
TIME 8027
Router 4 Sending Flit through Outport 0
  Flit ID   : 9451 | Packet ID : 1450 | Src : 4
------------------------------
Router 6 Sending Flit through Outport 0
  Flit ID   : 9445 | Packet ID : 1449 | Src : 6
------------------------------
Router 6 Sending Flit through Outport 4
  Flit ID   : 9427 | Packet ID : 1446 | Src : 3
------------------------------
Router 7 Sending Flit through Outport 0
  Flit ID   : 9441 | Packet ID : 1449 | Src : 6 | Dest : 8
------------------------------
Router 8 Sending Flit through Outport 4
  Flit ID   : 9436 | Packet ID : 1448 | Src : 7
------------------------------
TIME 8028
Router 4 Sending Flit through Outport 0
  Flit ID   : 9452 | Packet ID : 1450 | Src : 4
------------------------------
Router 6 Sending Flit through Outport 0
  Flit ID   : 9446 | Packet ID : 1449 | Src : 6
------------------------------
Router 7 Sending Flit through Outport 0
  Flit ID   : 9440 | Packet ID : 1448 | Src : 7
------------------------------
Router 8 Sending Flit through Outport 4
  Flit ID   : 9437 | Packet ID : 1448 | Src : 7
------------------------------
TIME 8029
Router 4 Sending Flit through Outport 0
  Flit ID   : 9453 | Packet ID : 1450 | Src : 4
------------------------------
Router 5 Sending Flit through Outport 4
  Flit ID   : 9449 | Packet ID : 1450 | Src : 4 | Dest : 5
------------------------------
Router 6 Sending Flit through Outport 0
  Flit ID   : 9447 | Packet ID : 1449 | Src : 6
------------------------------
Router 7 Sending Flit through Outport 0
  Flit ID   : 9442 | Packet ID : 1449 | Src : 6
------------------------------
Router 8 Sending Flit through Outport 4
  Flit ID   : 9438 | Packet ID : 1448 | Src : 7
------------------------------
TIME 8030
Router 4 Sending Flit through Outport 0
  Flit ID   : 9454 | Packet ID : 1450 | Src : 4
------------------------------
Router 5 Sending Flit through Outport 4
  Flit ID   : 9450 | Packet ID : 1450 | Src : 4
------------------------------
Router 6 Sending Flit through Outport 0
  Flit ID   : 9448 | Packet ID : 1449 | Src : 6
------------------------------
Router 7 Sending Flit through Outport 0
  Flit ID   : 9443 | Packet ID : 1449 | Src : 6
------------------------------
Router 8 Sending Flit through Outport 4
  Flit ID   : 9439 | Packet ID : 1448 | Src : 7
------------------------------
TIME 8031
Router 4 Sending Flit through Outport 0
  Flit ID   : 9455 | Packet ID : 1450 | Src : 4
------------------------------
Router 5 Sending Flit through Outport 4
  Flit ID   : 9451 | Packet ID : 1450 | Src : 4
------------------------------
Router 7 Sending Flit through Outport 0
  Flit ID   : 9444 | Packet ID : 1449 | Src : 6
------------------------------
Router 8 Sending Flit through Outport 4
  Flit ID   : 9441 | Packet ID : 1449 | Src : 6 | Dest : 8
------------------------------
TIME 8032
Router 4 Sending Flit through Outport 0
  Flit ID   : 9456 | Packet ID : 1450 | Src : 4
------------------------------
Router 5 Sending Flit through Outport 4
  Flit ID   : 9452 | Packet ID : 1450 | Src : 4
------------------------------
Router 7 Sending Flit through Outport 0
  Flit ID   : 9445 | Packet ID : 1449 | Src : 6
------------------------------
Router 8 Sending Flit through Outport 4
  Flit ID   : 9440 | Packet ID : 1448 | Src : 7
------------------------------
TIME 8033
Router 5 Sending Flit through Outport 4
  Flit ID   : 9453 | Packet ID : 1450 | Src : 4
------------------------------
Router 7 Sending Flit through Outport 0
  Flit ID   : 9446 | Packet ID : 1449 | Src : 6
------------------------------
Router 8 Sending Flit through Outport 4
  Flit ID   : 9442 | Packet ID : 1449 | Src : 6
------------------------------
TIME 8034
Router 5 Sending Flit through Outport 4
  Flit ID   : 9454 | Packet ID : 1450 | Src : 4
------------------------------
Router 7 Sending Flit through Outport 0
  Flit ID   : 9447 | Packet ID : 1449 | Src : 6
------------------------------
Router 8 Sending Flit through Outport 4
  Flit ID   : 9443 | Packet ID : 1449 | Src : 6
------------------------------
TIME 8035
Router 5 Sending Flit through Outport 4
  Flit ID   : 9455 | Packet ID : 1450 | Src : 4
------------------------------
Router 7 Sending Flit through Outport 0
  Flit ID   : 9448 | Packet ID : 1449 | Src : 6
------------------------------
Router 8 Sending Flit through Outport 4
  Flit ID   : 9444 | Packet ID : 1449 | Src : 6
------------------------------
TIME 8036
Router 5 Sending Flit through Outport 4
  Flit ID   : 9456 | Packet ID : 1450 | Src : 4
------------------------------
Router 8 Sending Flit through Outport 4
  Flit ID   : 9445 | Packet ID : 1449 | Src : 6
------------------------------
TIME 8037
Router 8 Sending Flit through Outport 4
  Flit ID   : 9446 | Packet ID : 1449 | Src : 6
------------------------------
TIME 8038
Router 8 Sending Flit through Outport 4
  Flit ID   : 9447 | Packet ID : 1449 | Src : 6
------------------------------
TIME 8039
Router 8 Sending Flit through Outport 4
  Flit ID   : 9448 | Packet ID : 1449 | Src : 6
------------------------------
TIME 8040
TIME 8041
TIME 8042
TIME 8043
TIME 8044
TIME 8045
TIME 8046
Time taken is 8046 cycles
====== Overall Traffic Statistics ======
====== Traffic class 0 ======
Packet latency average = 18.2419 (1 samples)
	minimum = 10 (1 samples)
	maximum = 40 (1 samples)
Network latency average = 18.1 (1 samples)
	minimum = 10 (1 samples)
	maximum = 39 (1 samples)
Flit latency average = 13.4677 (1 samples)
	minimum = 5 (1 samples)
	maximum = 35 (1 samples)
Fragmentation average = 0.82093 (1 samples)
	minimum = 0 (1 samples)
	maximum = 10 (1 samples)
Injected packet rate average = 0.00953333 (1 samples)
	minimum = 0.0068 (1 samples)
	maximum = 0.0116 (1 samples)
Accepted packet rate average = 0.00957778 (1 samples)
	minimum = 0.0082 (1 samples)
	maximum = 0.012 (1 samples)
Injected flit rate average = 0.0476667 (1 samples)
	minimum = 0.034 (1 samples)
	maximum = 0.058 (1 samples)
Accepted flit rate average = 0.0478889 (1 samples)
	minimum = 0.041 (1 samples)
	maximum = 0.06 (1 samples)
Injected packet size average = 5 (1 samples)
Accepted packet size average = 5 (1 samples)
Hops average = 2.80233 (1 samples)
Buffer busy stall rate = 0.000488889 (1 samples)
Buffer conflict stall rate = 4.44444e-05 (1 samples)
Buffer full stall rate = 0 (1 samples)
Buffer reserved stall rate = 0 (1 samples)
Crossbar conflict stall rate = 0.0130444 (1 samples)
====== Traffic class 1 ======
Packet latency average = 21.9073 (1 samples)
	minimum = 13 (1 samples)
	maximum = 48 (1 samples)
Network latency average = 21.6129 (1 samples)
	minimum = 13 (1 samples)
	maximum = 42 (1 samples)
Flit latency average = 13.6349 (1 samples)
	minimum = 5 (1 samples)
	maximum = 32 (1 samples)
Fragmentation average = 1.52016 (1 samples)
	minimum = 0 (1 samples)
	maximum = 13 (1 samples)
Injected packet rate average = 0.0110222 (1 samples)
	minimum = 0.0086 (1 samples)
	maximum = 0.0132 (1 samples)
Accepted packet rate average = 0.0109333 (1 samples)
	minimum = 0.0088 (1 samples)
	maximum = 0.0118 (1 samples)
Injected flit rate average = 0.0882222 (1 samples)
	minimum = 0.0684 (1 samples)
	maximum = 0.1056 (1 samples)
Accepted flit rate average = 0.0875778 (1 samples)
	minimum = 0.0704 (1 samples)
	maximum = 0.0964 (1 samples)
Injected packet size average = 8.00403 (1 samples)
Accepted packet size average = 8.01016 (1 samples)
Hops average = 2.76613 (1 samples)
Buffer busy stall rate = 4.44444e-05 (1 samples)
Buffer conflict stall rate = 6.66667e-05 (1 samples)
Buffer full stall rate = 0 (1 samples)
Buffer reserved stall rate = 0 (1 samples)
Crossbar conflict stall rate = 0.0260222 (1 samples)
Total run time 0.518687
