BEGIN Configuration File: ../logs/session_2026_06_05_12/mesh_sim.cfg
// Topology
topology = mesh;
k = 8;
n = 2;

// Routing
routing_function = dim_order;

// Flow Control
num_vcs = 4;
vc_buf_size = 8;
wait_for_tail_credit = 1;

// Traffic
traffic = uniform;
injection_rate = 0.15;

// Simulation
sim_type = latency;
warmup_periods = 3;
max_samples = 20000;
latency_thres = 500.0;
sim_count = 1;

END Configuration File: ../logs/session_2026_06_05_12/mesh_sim.cfg
Class 0:
Packet latency average = 35.1983
	minimum = 7
	maximum = 88
Network latency average = 35.1923
	minimum = 7
	maximum = 88
Slowest packet = 1371
Flit latency average = 35.1923
	minimum = 7
	maximum = 88
Slowest flit = 1371
Fragmentation average = 0
	minimum = 0
	maximum = 0
Injected packet rate average = 0.147844
	minimum = 0.125 (at node 9)
	maximum = 0.169 (at node 43)
Accepted packet rate average = 0.142531
	minimum = 0.115 (at node 52)
	maximum = 0.169 (at node 14)
Injected flit rate average = 0.147844
	minimum = 0.125 (at node 9)
	maximum = 0.169 (at node 43)
Accepted flit rate average= 0.142531
	minimum = 0.115 (at node 52)
	maximum = 0.169 (at node 14)
Injected packet length average = 1
Accepted packet length average = 1
Total in-flight flits = 340 (0 measured)
Buffer busy stall rate = 0.164078
Buffer conflict stall rate = 0.0901094
Buffer full stall rate = 0
Buffer reserved stall rate = 0
Crossbar conflict stall rate = 0.0329531
latency change    = 1
throughput change = 1
Class 0:
Packet latency average = 35.4338
	minimum = 7
	maximum = 108
Network latency average = 35.421
	minimum = 7
	maximum = 108
Slowest packet = 11174
Flit latency average = 35.421
	minimum = 7
	maximum = 108
Slowest flit = 11174
Fragmentation average = 0
	minimum = 0
	maximum = 0
Injected packet rate average = 0.149102
	minimum = 0.1315 (at node 9)
	maximum = 0.1635 (at node 47)
Accepted packet rate average = 0.146398
	minimum = 0.126 (at node 52)
	maximum = 0.165 (at node 14)
Injected flit rate average = 0.149102
	minimum = 0.1315 (at node 9)
	maximum = 0.1635 (at node 47)
Accepted flit rate average= 0.146398
	minimum = 0.126 (at node 52)
	maximum = 0.165 (at node 14)
Injected packet length average = 1
Accepted packet length average = 1
Total in-flight flits = 347 (0 measured)
Buffer busy stall rate = 0.196047
Buffer conflict stall rate = 0.103664
Buffer full stall rate = 0
Buffer reserved stall rate = 0
Crossbar conflict stall rate = 0.0339687
latency change    = 0.0066459
throughput change = 0.0264155
Class 0:
Packet latency average = 35.6076
	minimum = 7
	maximum = 109
Network latency average = 35.5386
	minimum = 7
	maximum = 109
Slowest packet = 18241
Flit latency average = 35.5386
	minimum = 7
	maximum = 109
Slowest flit = 18241
Fragmentation average = 0
	minimum = 0
	maximum = 0
Injected packet rate average = 0.148359
	minimum = 0.123 (at node 38)
	maximum = 0.178 (at node 34)
Accepted packet rate average = 0.148359
	minimum = 0.125 (at node 12)
	maximum = 0.173 (at node 53)
Injected flit rate average = 0.148359
	minimum = 0.123 (at node 38)
	maximum = 0.178 (at node 34)
Accepted flit rate average= 0.148359
	minimum = 0.125 (at node 12)
	maximum = 0.173 (at node 53)
Injected packet length average = 1
Accepted packet length average = 1
Total in-flight flits = 346 (0 measured)
Buffer busy stall rate = 0.196172
Buffer conflict stall rate = 0.100984
Buffer full stall rate = 0
Buffer reserved stall rate = 0
Crossbar conflict stall rate = 0.0351562
latency change    = 0.00488047
throughput change = 0.0132175
Warmed up ...Time used is 3000 cycles
Class 0:
Packet latency average = 35.5269
	minimum = 7
	maximum = 104
Network latency average = 35.5186
	minimum = 7
	maximum = 104
Slowest packet = 32845
Flit latency average = 35.7307
	minimum = 7
	maximum = 104
Slowest flit = 32845
Fragmentation average = 0
	minimum = 0
	maximum = 0
Injected packet rate average = 0.151922
	minimum = 0.125 (at node 51)
	maximum = 0.184 (at node 26)
Accepted packet rate average = 0.152047
	minimum = 0.121 (at node 40)
	maximum = 0.172 (at node 10)
Injected flit rate average = 0.151922
	minimum = 0.125 (at node 51)
	maximum = 0.184 (at node 26)
Accepted flit rate average= 0.152047
	minimum = 0.121 (at node 40)
	maximum = 0.172 (at node 10)
Injected packet length average = 1
Accepted packet length average = 1
Total in-flight flits = 338 (338 measured)
Buffer busy stall rate = 0.194641
Buffer conflict stall rate = 0.104719
Buffer full stall rate = 0
Buffer reserved stall rate = 0
Crossbar conflict stall rate = 0.0363125
latency change    = 0.00227091
throughput change = 0.0242524
Class 0:
Packet latency average = 35.5266
	minimum = 7
	maximum = 104
Network latency average = 35.517
	minimum = 7
	maximum = 104
Slowest packet = 32845
Flit latency average = 35.6237
	minimum = 7
	maximum = 104
Slowest flit = 32845
Fragmentation average = 0
	minimum = 0
	maximum = 0
Injected packet rate average = 0.150891
	minimum = 0.131 (at node 51)
	maximum = 0.1705 (at node 26)
Accepted packet rate average = 0.151125
	minimum = 0.134 (at node 23)
	maximum = 0.166 (at node 57)
Injected flit rate average = 0.150891
	minimum = 0.131 (at node 51)
	maximum = 0.1705 (at node 26)
Accepted flit rate average= 0.151125
	minimum = 0.134 (at node 23)
	maximum = 0.166 (at node 57)
Injected packet length average = 1
Accepted packet length average = 1
Total in-flight flits = 316 (316 measured)
Buffer busy stall rate = 0.191023
Buffer conflict stall rate = 0.102555
Buffer full stall rate = 0
Buffer reserved stall rate = 0
Crossbar conflict stall rate = 0.0363359
latency change    = 9.08868e-06
throughput change = 0.00610008
Class 0:
Packet latency average = 35.5573
	minimum = 7
	maximum = 104
Network latency average = 35.5466
	minimum = 7
	maximum = 104
Slowest packet = 32845
Flit latency average = 35.6177
	minimum = 7
	maximum = 104
Slowest flit = 32845
Fragmentation average = 0
	minimum = 0
	maximum = 0
Injected packet rate average = 0.150281
	minimum = 0.136 (at node 50)
	maximum = 0.167 (at node 26)
Accepted packet rate average = 0.150396
	minimum = 0.137 (at node 17)
	maximum = 0.166333 (at node 57)
Injected flit rate average = 0.150281
	minimum = 0.136 (at node 50)
	maximum = 0.167 (at node 26)
Accepted flit rate average= 0.150396
	minimum = 0.137 (at node 17)
	maximum = 0.166333 (at node 57)
Injected packet length average = 1
Accepted packet length average = 1
Total in-flight flits = 324 (324 measured)
Buffer busy stall rate = 0.196448
Buffer conflict stall rate = 0.104901
Buffer full stall rate = 0
Buffer reserved stall rate = 0
Crossbar conflict stall rate = 0.0362917
latency change    = 0.000864136
throughput change = 0.00484832
Draining all recorded packets ...
Draining remaining packets ...
Time taken is 6147 cycles
====== Overall Traffic Statistics ======
====== Traffic class 0 ======
Packet latency average = 35.6302 (1 samples)
	minimum = 7 (1 samples)
	maximum = 104 (1 samples)
Network latency average = 35.6195 (1 samples)
	minimum = 7 (1 samples)
	maximum = 104 (1 samples)
Flit latency average = 35.6795 (1 samples)
	minimum = 7 (1 samples)
	maximum = 104 (1 samples)
Fragmentation average = 0 (1 samples)
	minimum = 0 (1 samples)
	maximum = 0 (1 samples)
Injected packet rate average = 0.150281 (1 samples)
	minimum = 0.136 (1 samples)
	maximum = 0.167 (1 samples)
Accepted packet rate average = 0.150396 (1 samples)
	minimum = 0.137 (1 samples)
	maximum = 0.166333 (1 samples)
Injected flit rate average = 0.150281 (1 samples)
	minimum = 0.136 (1 samples)
	maximum = 0.167 (1 samples)
Accepted flit rate average = 0.150396 (1 samples)
	minimum = 0.137 (1 samples)
	maximum = 0.166333 (1 samples)
Injected packet size average = 1 (1 samples)
Accepted packet size average = 1 (1 samples)
Hops average = 6.27542 (1 samples)
Buffer busy stall rate = 0.196448 (1 samples)
Buffer conflict stall rate = 0.104901 (1 samples)
Buffer full stall rate = 0 (1 samples)
Buffer reserved stall rate = 0 (1 samples)
Crossbar conflict stall rate = 0.0362917 (1 samples)
Total run time 4.43945
