BEGIN Configuration File: /home/dell/Documents/claw/logs/mesh5x5_event.cfg
// 5x5 Mesh Simulation with Event Router
topology = mesh;
k = 5;
n = 2;

// Routing
routing_function = event_router;

// Flow control
num_vcs     = 4;
vc_buf_size = 8;
wait_for_tail_credit = 1;

// Traffic
traffic = uniform;
packet_size = 5;
injection_rate = 0.05;
injection_process = bernoulli;

// Simulation
sim_type = latency;
max_samples = 10000;
print_csv_results = 1;

END Configuration File: /home/dell/Documents/claw/logs/mesh5x5_event.cfg
Error in network_0/router_0_0 : Invalid routing function: event_router_mesh
