BEGIN Configuration File: ../booksim/src/examples/mesh4x4_custom.cfg
// 4x4 Mesh Simulation Configuration
topology = mesh;
k = 4;
n = 2;

// Routing
routing_function = dor;

// Flow control
num_vcs     = 4;
vc_buf_size = 8;
wait_for_tail_credit = 1;

// Traffic
traffic = uniform;
packet_size = 5;
injection_rate = 0.10;
injection_process = bernoulli;

// Simulation
sim_type = latency;
max_samples = 10000;
print_csv_results = 1;

END Configuration File: ../booksim/src/examples/mesh4x4_custom.cfg
Class 0:
Packet latency average = 32.384
	minimum = 11
	maximum = 84
Network latency average = 30.3625
	minimum = 11
	maximum = 84
Slowest packet = 1226
Flit latency average = 23.9336
	minimum = 7
	maximum = 80
Slowest flit = 6134
Fragmentation average = 4.81506
	minimum = 0
	maximum = 24
Injected packet rate average = 0.09575
	minimum = 0.073 (at node 7)
	maximum = 0.111 (at node 0)
Accepted packet rate average = 0.0929375
	minimum = 0.078 (at node 3)
	maximum = 0.105 (at node 8)
Injected flit rate average = 0.478063
	minimum = 0.365 (at node 7)
	maximum = 0.555 (at node 0)
Accepted flit rate average= 0.46675
	minimum = 0.391 (at node 14)
	maximum = 0.529 (at node 8)
Injected packet length average = 4.99282
Accepted packet length average = 5.02219
Total in-flight flits = 192 (0 measured)
Buffer busy stall rate = 0.13125
Buffer conflict stall rate = 0.0156875
Buffer full stall rate = 0
Buffer reserved stall rate = 0
Crossbar conflict stall rate = 1.03881
latency change    = 1
throughput change = 1
Class 0:
Packet latency average = 32.5094
	minimum = 11
	maximum = 87
Network latency average = 30.6013
	minimum = 11
	maximum = 84
Slowest packet = 1226
Flit latency average = 24.1714
	minimum = 7
	maximum = 80
Slowest flit = 6134
Fragmentation average = 4.73913
	minimum = 0
	maximum = 32
Injected packet rate average = 0.0949688
	minimum = 0.083 (at node 7)
	maximum = 0.1045 (at node 12)
Accepted packet rate average = 0.0934375
	minimum = 0.0835 (at node 14)
	maximum = 0.1015 (at node 12)
Injected flit rate average = 0.474062
	minimum = 0.413 (at node 7)
	maximum = 0.5225 (at node 12)
Accepted flit rate average= 0.468156
	minimum = 0.4175 (at node 14)
	maximum = 0.5075 (at node 12)
Injected packet length average = 4.99177
Accepted packet length average = 5.01037
Total in-flight flits = 214 (0 measured)
Buffer busy stall rate = 0.131125
Buffer conflict stall rate = 0.0148437
Buffer full stall rate = 0
Buffer reserved stall rate = 0
Crossbar conflict stall rate = 1.03412
latency change    = 0.00385643
throughput change = 0.0030038
Class 0:
Packet latency average = 34.2721
	minimum = 11
	maximum = 146
Network latency average = 32.0214
	minimum = 11
	maximum = 146
Slowest packet = 3666
Flit latency average = 25.3728
	minimum = 7
	maximum = 142
Slowest flit = 18334
Fragmentation average = 5.09091
	minimum = 0
	maximum = 28
Injected packet rate average = 0.10275
	minimum = 0.092 (at node 6)
	maximum = 0.119 (at node 15)
Accepted packet rate average = 0.102438
	minimum = 0.09 (at node 4)
	maximum = 0.125 (at node 6)
Injected flit rate average = 0.514437
	minimum = 0.46 (at node 6)
	maximum = 0.595 (at node 15)
Accepted flit rate average= 0.5125
	minimum = 0.447 (at node 4)
	maximum = 0.625 (at node 6)
Injected packet length average = 5.00669
Accepted packet length average = 5.00305
Total in-flight flits = 234 (0 measured)
Buffer busy stall rate = 0.222375
Buffer conflict stall rate = 0.0256875
Buffer full stall rate = 0
Buffer reserved stall rate = 0
Crossbar conflict stall rate = 1.2725
latency change    = 0.051434
throughput change = 0.0865244
Warmed up ...Time used is 3000 cycles
Class 0:
Packet latency average = 34.7134
	minimum = 11
	maximum = 112
Network latency average = 32.0324
	minimum = 11
	maximum = 104
Slowest packet = 5102
Flit latency average = 25.5414
	minimum = 7
	maximum = 100
Slowest flit = 25514
Fragmentation average = 5.27497
	minimum = 0
	maximum = 28
Injected packet rate average = 0.0994375
	minimum = 0.084 (at node 9)
	maximum = 0.122 (at node 0)
Accepted packet rate average = 0.09975
	minimum = 0.083 (at node 13)
	maximum = 0.115 (at node 1)
Injected flit rate average = 0.497312
	minimum = 0.418 (at node 9)
	maximum = 0.608 (at node 0)
Accepted flit rate average= 0.498
	minimum = 0.412 (at node 13)
	maximum = 0.575 (at node 1)
Injected packet length average = 5.00126
Accepted packet length average = 4.99248
Total in-flight flits = 221 (221 measured)
Buffer busy stall rate = 0.181125
Buffer conflict stall rate = 0.0223125
Buffer full stall rate = 0
Buffer reserved stall rate = 0
Crossbar conflict stall rate = 1.25019
latency change    = 0.012711
throughput change = 0.0291165
Class 0:
Packet latency average = 34.0947
	minimum = 11
	maximum = 112
Network latency average = 31.7167
	minimum = 11
	maximum = 104
Slowest packet = 5102
Flit latency average = 25.1595
	minimum = 7
	maximum = 100
Slowest flit = 25514
Fragmentation average = 5.18548
	minimum = 0
	maximum = 31
Injected packet rate average = 0.0993125
	minimum = 0.091 (at node 6)
	maximum = 0.1105 (at node 0)
Accepted packet rate average = 0.0994063
	minimum = 0.087 (at node 6)
	maximum = 0.1095 (at node 11)
Injected flit rate average = 0.49625
	minimum = 0.454 (at node 6)
	maximum = 0.5525 (at node 0)
Accepted flit rate average= 0.496594
	minimum = 0.435 (at node 6)
	maximum = 0.5495 (at node 11)
Injected packet length average = 4.99685
Accepted packet length average = 4.9956
Total in-flight flits = 233 (233 measured)
Buffer busy stall rate = 0.175937
Buffer conflict stall rate = 0.0214063
Buffer full stall rate = 0
Buffer reserved stall rate = 0
Crossbar conflict stall rate = 1.22463
latency change    = 0.0181465
throughput change = 0.00283179
Class 0:
Packet latency average = 33.7644
	minimum = 11
	maximum = 112
Network latency average = 31.5179
	minimum = 11
	maximum = 107
Slowest packet = 5102
Flit latency average = 24.9403
	minimum = 7
	maximum = 103
Slowest flit = 39782
Fragmentation average = 5.17228
	minimum = 0
	maximum = 31
Injected packet rate average = 0.0993125
	minimum = 0.0923333 (at node 3)
	maximum = 0.106333 (at node 11)
Accepted packet rate average = 0.0995625
	minimum = 0.088 (at node 4)
	maximum = 0.109667 (at node 11)
Injected flit rate average = 0.496625
	minimum = 0.461667 (at node 3)
	maximum = 0.531 (at node 11)
Accepted flit rate average= 0.498042
	minimum = 0.439 (at node 4)
	maximum = 0.549333 (at node 11)
Injected packet length average = 5.00063
Accepted packet length average = 5.0023
Total in-flight flits = 163 (163 measured)
Buffer busy stall rate = 0.164958
Buffer conflict stall rate = 0.0195625
Buffer full stall rate = 0
Buffer reserved stall rate = 0
Crossbar conflict stall rate = 1.21077
latency change    = 0.00977996
throughput change = 0.00290722
Draining all recorded packets ...
Draining remaining packets ...
Time taken is 6114 cycles
====== Overall Traffic Statistics ======
====== Traffic class 0 ======
Packet latency average = 33.818 (1 samples)
	minimum = 11 (1 samples)
	maximum = 112 (1 samples)
Network latency average = 31.5468 (1 samples)
	minimum = 11 (1 samples)
	maximum = 107 (1 samples)
Flit latency average = 24.9644 (1 samples)
	minimum = 7 (1 samples)
	maximum = 103 (1 samples)
Fragmentation average = 5.1652 (1 samples)
	minimum = 0 (1 samples)
	maximum = 31 (1 samples)
Injected packet rate average = 0.0993125 (1 samples)
	minimum = 0.0923333 (1 samples)
	maximum = 0.106333 (1 samples)
Accepted packet rate average = 0.0995625 (1 samples)
	minimum = 0.088 (1 samples)
	maximum = 0.109667 (1 samples)
Injected flit rate average = 0.496625 (1 samples)
	minimum = 0.461667 (1 samples)
	maximum = 0.531 (1 samples)
Accepted flit rate average = 0.498042 (1 samples)
	minimum = 0.439 (1 samples)
	maximum = 0.549333 (1 samples)
Injected packet size average = 5.00063 (1 samples)
Accepted packet size average = 5.0023 (1 samples)
Hops average = 3.54298 (1 samples)
Buffer busy stall rate = 0.164958 (1 samples)
Buffer conflict stall rate = 0.0195625 (1 samples)
Buffer full stall rate = 0 (1 samples)
Buffer reserved stall rate = 0 (1 samples)
Crossbar conflict stall rate = 1.21077 (1 samples)
results:0,uniform,0,0.1,11,33.818,112,11,31.5468,107,7,24.9644,103,0,5.1652,31,0.0923333,0.0993125,0.106333,0.088,0.0995625,0.109667,0.461667,0.496625,0.531,0.439,0.498042,0.549333,5.00063,5.0023,3.54298,0.164958,0.0195625,0,0,1.21077
Total run time 1.35191
