BEGIN Configuration File: /home/dell/Documents/claw/booksim/configs/mesh3x3.cfg
topology = mesh;
k = 3;
n = 2;
routing_function = dim_order;
num_vcs = 2;
traffic = uniform;
injection_rate = 0.05;
sim_count = 1;
sim_type = latency;
warmup_periods = 1000;
max_samples = 10000;

END Configuration File: /home/dell/Documents/claw/booksim/configs/mesh3x3.cfg
Class 0:
Packet latency average = 15.7254
	minimum = 7
	maximum = 29
Network latency average = 15.7254
	minimum = 7
	maximum = 29
Slowest packet = 234
Flit latency average = 15.7254
	minimum = 7
	maximum = 29
Slowest flit = 234
Fragmentation average = 0
	minimum = 0
	maximum = 0
Injected packet rate average = 0.0488889
	minimum = 0.035 (at node 2)
	maximum = 0.059 (at node 8)
Accepted packet rate average = 0.0485556
	minimum = 0.039 (at node 1)
	maximum = 0.062 (at node 2)
Injected flit rate average = 0.0488889
	minimum = 0.035 (at node 2)
	maximum = 0.059 (at node 8)
Accepted flit rate average= 0.0485556
	minimum = 0.039 (at node 1)
	maximum = 0.062 (at node 2)
Injected packet length average = 1
Accepted packet length average = 1
Total in-flight flits = 3 (0 measured)
Buffer busy stall rate = 0
Buffer conflict stall rate = 0.002
Buffer full stall rate = 0
Buffer reserved stall rate = 0
Crossbar conflict stall rate = 0.000666667
latency change    = 1
throughput change = 1
Class 0:
Packet latency average = 15.8588
	minimum = 7
	maximum = 29
Network latency average = 15.8588
	minimum = 7
	maximum = 29
Slowest packet = 234
Flit latency average = 15.8588
	minimum = 7
	maximum = 29
Slowest flit = 234
Fragmentation average = 0
	minimum = 0
	maximum = 0
Injected packet rate average = 0.049
	minimum = 0.046 (at node 2)
	maximum = 0.054 (at node 8)
Accepted packet rate average = 0.0487778
	minimum = 0.046 (at node 8)
	maximum = 0.054 (at node 2)
Injected flit rate average = 0.049
	minimum = 0.046 (at node 2)
	maximum = 0.054 (at node 8)
Accepted flit rate average= 0.0487778
	minimum = 0.046 (at node 8)
	maximum = 0.054 (at node 2)
Injected packet length average = 1
Accepted packet length average = 1
Total in-flight flits = 4 (0 measured)
Buffer busy stall rate = 0
Buffer conflict stall rate = 0.00127778
Buffer full stall rate = 0
Buffer reserved stall rate = 0
Crossbar conflict stall rate = 0.0005
latency change    = 0.00840982
throughput change = 0.00455581
Class 0:
Packet latency average = 15.4989
	minimum = 7
	maximum = 28
Network latency average = 15.4989
	minimum = 7
	maximum = 28
Slowest packet = 1248
Flit latency average = 15.4989
	minimum = 7
	maximum = 28
Slowest flit = 1248
Fragmentation average = 0
	minimum = 0
	maximum = 0
Injected packet rate average = 0.0502222
	minimum = 0.044 (at node 2)
	maximum = 0.055 (at node 6)
Accepted packet rate average = 0.0498889
	minimum = 0.043 (at node 1)
	maximum = 0.062 (at node 7)
Injected flit rate average = 0.0502222
	minimum = 0.044 (at node 2)
	maximum = 0.055 (at node 6)
Accepted flit rate average= 0.0498889
	minimum = 0.043 (at node 1)
	maximum = 0.062 (at node 7)
Injected packet length average = 1
Accepted packet length average = 1
Total in-flight flits = 7 (0 measured)
Buffer busy stall rate = 0
Buffer conflict stall rate = 0.000777778
Buffer full stall rate = 0
Buffer reserved stall rate = 0
Crossbar conflict stall rate = 0.000444444
latency change    = 0.02322
throughput change = 0.0222717
Class 0:
Packet latency average = 15.9051
	minimum = 7
	maximum = 28
Network latency average = 15.9051
	minimum = 7
	maximum = 28
Slowest packet = 1248
Flit latency average = 15.9051
	minimum = 7
	maximum = 28
Slowest flit = 1248
Fragmentation average = 0
	minimum = 0
	maximum = 0
Injected packet rate average = 0.049
	minimum = 0.043 (at node 5)
	maximum = 0.052 (at node 8)
Accepted packet rate average = 0.0486111
	minimum = 0.0435 (at node 1)
	maximum = 0.0535 (at node 4)
Injected flit rate average = 0.049
	minimum = 0.043 (at node 5)
	maximum = 0.052 (at node 8)
Accepted flit rate average= 0.0486111
	minimum = 0.0435 (at node 1)
	maximum = 0.0535 (at node 4)
Injected packet length average = 1
Accepted packet length average = 1
Total in-flight flits = 11 (0 measured)
Buffer busy stall rate = 0
Buffer conflict stall rate = 0.001
Buffer full stall rate = 0
Buffer reserved stall rate = 0
Crossbar conflict stall rate = 0.000277778
latency change    = 0.0255425
throughput change = 0.0262857
Class 0:
Packet latency average = 15.8382
	minimum = 7
	maximum = 28
Network latency average = 15.8382
	minimum = 7
	maximum = 28
Slowest packet = 1926
Flit latency average = 15.8382
	minimum = 7
	maximum = 28
Slowest flit = 1926
Fragmentation average = 0
	minimum = 0
	maximum = 0
Injected packet rate average = 0.0533333
	minimum = 0.048 (at node 2)
	maximum = 0.06 (at node 4)
Accepted packet rate average = 0.0535556
	minimum = 0.045 (at node 3)
	maximum = 0.064 (at node 5)
Injected flit rate average = 0.0533333
	minimum = 0.048 (at node 2)
	maximum = 0.06 (at node 4)
Accepted flit rate average= 0.0535556
	minimum = 0.045 (at node 3)
	maximum = 0.064 (at node 5)
Injected packet length average = 1
Accepted packet length average = 1
Total in-flight flits = 9 (0 measured)
Buffer busy stall rate = 0
Buffer conflict stall rate = 0.000888889
Buffer full stall rate = 0
Buffer reserved stall rate = 0
Crossbar conflict stall rate = 0.000444444
latency change    = 0.0042283
throughput change = 0.0923237
Class 0:
Packet latency average = 15.8659
	minimum = 7
	maximum = 28
Network latency average = 15.8659
	minimum = 7
	maximum = 28
Slowest packet = 1926
Flit latency average = 15.8659
	minimum = 7
	maximum = 28
Slowest flit = 1926
Fragmentation average = 0
	minimum = 0
	maximum = 0
Injected packet rate average = 0.0523889
	minimum = 0.0465 (at node 6)
	maximum = 0.0615 (at node 7)
Accepted packet rate average = 0.0526111
	minimum = 0.046 (at node 0)
	maximum = 0.06 (at node 5)
Injected flit rate average = 0.0523889
	minimum = 0.0465 (at node 6)
	maximum = 0.0615 (at node 7)
Accepted flit rate average= 0.0526111
	minimum = 0.046 (at node 0)
	maximum = 0.06 (at node 5)
Injected packet length average = 1
Accepted packet length average = 1
Total in-flight flits = 7 (0 measured)
Buffer busy stall rate = 0
Buffer conflict stall rate = 0.00111111
Buffer full stall rate = 0
Buffer reserved stall rate = 0
Crossbar conflict stall rate = 0.0005
latency change    = 0.00174702
throughput change = 0.0179514
Class 0:
Packet latency average = 15.7651
	minimum = 7
	maximum = 28
Network latency average = 15.7651
	minimum = 7
	maximum = 28
Slowest packet = 2838
Flit latency average = 15.7651
	minimum = 7
	maximum = 28
Slowest flit = 2838
Fragmentation average = 0
	minimum = 0
	maximum = 0
Injected packet rate average = 0.0462222
	minimum = 0.041 (at node 8)
	maximum = 0.053 (at node 0)
Accepted packet rate average = 0.0458889
	minimum = 0.036 (at node 3)
	maximum = 0.054 (at node 7)
Injected flit rate average = 0.0462222
	minimum = 0.041 (at node 8)
	maximum = 0.053 (at node 0)
Accepted flit rate average= 0.0458889
	minimum = 0.036 (at node 3)
	maximum = 0.054 (at node 7)
Injected packet length average = 1
Accepted packet length average = 1
Total in-flight flits = 10 (0 measured)
Buffer busy stall rate = 0
Buffer conflict stall rate = 0.000555556
Buffer full stall rate = 0
Buffer reserved stall rate = 0
Crossbar conflict stall rate = 0.000444444
latency change    = 0.00639126
throughput change = 0.146489
Class 0:
Packet latency average = 15.7
	minimum = 7
	maximum = 28
Network latency average = 15.7
	minimum = 7
	maximum = 28
Slowest packet = 2838
Flit latency average = 15.7
	minimum = 7
	maximum = 28
Slowest flit = 2838
Fragmentation average = 0
	minimum = 0
	maximum = 0
Injected packet rate average = 0.0466667
	minimum = 0.035 (at node 8)
	maximum = 0.057 (at node 2)
Accepted packet rate average = 0.0466667
	minimum = 0.0405 (at node 2)
	maximum = 0.052 (at node 8)
Injected flit rate average = 0.0466667
	minimum = 0.035 (at node 8)
	maximum = 0.057 (at node 2)
Accepted flit rate average= 0.0466667
	minimum = 0.0405 (at node 2)
	maximum = 0.052 (at node 8)
Injected packet length average = 1
Accepted packet length average = 1
Total in-flight flits = 7 (0 measured)
Buffer busy stall rate = 5.55556e-05
Buffer conflict stall rate = 0.001
Buffer full stall rate = 0
Buffer reserved stall rate = 0
Crossbar conflict stall rate = 0.000555556
latency change    = 0.00414861
throughput change = 0.0166667
Class 0:
Packet latency average = 16.0227
	minimum = 7
	maximum = 30
Network latency average = 16.0227
	minimum = 7
	maximum = 30
Slowest packet = 3555
Flit latency average = 16.0227
	minimum = 7
	maximum = 30
Slowest flit = 3555
Fragmentation average = 0
	minimum = 0
	maximum = 0
Injected packet rate average = 0.0486667
	minimum = 0.044 (at node 1)
	maximum = 0.057 (at node 6)
Accepted packet rate average = 0.049
	minimum = 0.043 (at node 1)
	maximum = 0.063 (at node 3)
Injected flit rate average = 0.0486667
	minimum = 0.044 (at node 1)
	maximum = 0.057 (at node 6)
Accepted flit rate average= 0.049
	minimum = 0.043 (at node 1)
	maximum = 0.063 (at node 3)
Injected packet length average = 1
Accepted packet length average = 1
Total in-flight flits = 4 (0 measured)
Buffer busy stall rate = 0
Buffer conflict stall rate = 0.001
Buffer full stall rate = 0
Buffer reserved stall rate = 0
Crossbar conflict stall rate = 0.000222222
latency change    = 0.0201387
throughput change = 0.047619
Class 0:
Packet latency average = 16.2435
	minimum = 7
	maximum = 30
Network latency average = 16.2435
	minimum = 7
	maximum = 30
Slowest packet = 3555
Flit latency average = 16.2435
	minimum = 7
	maximum = 30
Slowest flit = 3555
Fragmentation average = 0
	minimum = 0
	maximum = 0
Injected packet rate average = 0.0488889
	minimum = 0.047 (at node 1)
	maximum = 0.0515 (at node 2)
Accepted packet rate average = 0.0488333
	minimum = 0.04 (at node 1)
	maximum = 0.0575 (at node 3)
Injected flit rate average = 0.0488889
	minimum = 0.047 (at node 1)
	maximum = 0.0515 (at node 2)
Accepted flit rate average= 0.0488333
	minimum = 0.04 (at node 1)
	maximum = 0.0575 (at node 3)
Injected packet length average = 1
Accepted packet length average = 1
Total in-flight flits = 8 (0 measured)
Buffer busy stall rate = 0
Buffer conflict stall rate = 0.00105556
Buffer full stall rate = 0
Buffer reserved stall rate = 0
Crossbar conflict stall rate = 0.000388889
latency change    = 0.0135921
throughput change = 0.00341297
Class 0:
Packet latency average = 15.7687
	minimum = 7
	maximum = 27
Network latency average = 15.7687
	minimum = 7
	maximum = 27
Slowest packet = 4452
Flit latency average = 15.7687
	minimum = 7
	maximum = 27
Slowest flit = 4452
Fragmentation average = 0
	minimum = 0
	maximum = 0
Injected packet rate average = 0.0502222
	minimum = 0.039 (at node 5)
	maximum = 0.061 (at node 1)
Accepted packet rate average = 0.0504444
	minimum = 0.042 (at node 0)
	maximum = 0.068 (at node 7)
Injected flit rate average = 0.0502222
	minimum = 0.039 (at node 5)
	maximum = 0.061 (at node 1)
Accepted flit rate average= 0.0504444
	minimum = 0.042 (at node 0)
	maximum = 0.068 (at node 7)
Injected packet length average = 1
Accepted packet length average = 1
Total in-flight flits = 6 (0 measured)
Buffer busy stall rate = 0
Buffer conflict stall rate = 0.000888889
Buffer full stall rate = 0
Buffer reserved stall rate = 0
Crossbar conflict stall rate = 0.000444444
latency change    = 0.0301062
throughput change = 0.0319383
Class 0:
Packet latency average = 15.7129
	minimum = 7
	maximum = 27
Network latency average = 15.7129
	minimum = 7
	maximum = 27
Slowest packet = 4452
Flit latency average = 15.7129
	minimum = 7
	maximum = 27
Slowest flit = 4452
Fragmentation average = 0
	minimum = 0
	maximum = 0
Injected packet rate average = 0.0511667
	minimum = 0.045 (at node 5)
	maximum = 0.056 (at node 4)
Accepted packet rate average = 0.0512778
	minimum = 0.0435 (at node 3)
	maximum = 0.06 (at node 7)
Injected flit rate average = 0.0511667
	minimum = 0.045 (at node 5)
	maximum = 0.056 (at node 4)
Accepted flit rate average= 0.0512778
	minimum = 0.0435 (at node 3)
	maximum = 0.06 (at node 7)
Injected packet length average = 1
Accepted packet length average = 1
Total in-flight flits = 6 (0 measured)
Buffer busy stall rate = 0
Buffer conflict stall rate = 0.000833333
Buffer full stall rate = 0
Buffer reserved stall rate = 0
Crossbar conflict stall rate = 0.000333333
latency change    = 0.00355312
throughput change = 0.0162514
Class 0:
Packet latency average = 16.0814
	minimum = 7
	maximum = 27
Network latency average = 16.0814
	minimum = 7
	maximum = 27
Slowest packet = 5353
Flit latency average = 16.0814
	minimum = 7
	maximum = 27
Slowest flit = 5353
Fragmentation average = 0
	minimum = 0
	maximum = 0
Injected packet rate average = 0.049
	minimum = 0.041 (at node 1)
	maximum = 0.065 (at node 0)
Accepted packet rate average = 0.0491111
	minimum = 0.038 (at node 7)
	maximum = 0.056 (at node 6)
Injected flit rate average = 0.049
	minimum = 0.041 (at node 1)
	maximum = 0.065 (at node 0)
Accepted flit rate average= 0.0491111
	minimum = 0.038 (at node 7)
	maximum = 0.056 (at node 6)
Injected packet length average = 1
Accepted packet length average = 1
Total in-flight flits = 5 (0 measured)
Buffer busy stall rate = 0
Buffer conflict stall rate = 0.000444444
Buffer full stall rate = 0
Buffer reserved stall rate = 0
Crossbar conflict stall rate = 0
latency change    = 0.022918
throughput change = 0.0441176
Class 0:
Packet latency average = 16.0088
	minimum = 7
	maximum = 29
Network latency average = 16.0088
	minimum = 7
	maximum = 29
Slowest packet = 5926
Flit latency average = 16.0088
	minimum = 7
	maximum = 29
Slowest flit = 5926
Fragmentation average = 0
	minimum = 0
	maximum = 0
Injected packet rate average = 0.0507222
	minimum = 0.045 (at node 4)
	maximum = 0.0585 (at node 0)
Accepted packet rate average = 0.0507222
	minimum = 0.0435 (at node 0)
	maximum = 0.0555 (at node 3)
Injected flit rate average = 0.0507222
	minimum = 0.045 (at node 4)
	maximum = 0.0585 (at node 0)
Accepted flit rate average= 0.0507222
	minimum = 0.0435 (at node 0)
	maximum = 0.0555 (at node 3)
Injected packet length average = 1
Accepted packet length average = 1
Total in-flight flits = 6 (0 measured)
Buffer busy stall rate = 5.55556e-05
Buffer conflict stall rate = 0.000833333
Buffer full stall rate = 0
Buffer reserved stall rate = 0
Crossbar conflict stall rate = 0.000333333
latency change    = 0.00454037
throughput change = 0.0317634
Class 0:
Packet latency average = 15.8389
	minimum = 7
	maximum = 28
Network latency average = 15.8389
	minimum = 7
	maximum = 28
Slowest packet = 6377
Flit latency average = 15.8389
	minimum = 7
	maximum = 28
Slowest flit = 6377
Fragmentation average = 0
	minimum = 0
	maximum = 0
Injected packet rate average = 0.0467778
	minimum = 0.043 (at node 6)
	maximum = 0.056 (at node 1)
Accepted packet rate average = 0.0468889
	minimum = 0.039 (at node 0)
	maximum = 0.055 (at node 3)
Injected flit rate average = 0.0467778
	minimum = 0.043 (at node 6)
	maximum = 0.056 (at node 1)
Accepted flit rate average= 0.0468889
	minimum = 0.039 (at node 0)
	maximum = 0.055 (at node 3)
Injected packet length average = 1
Accepted packet length average = 1
Total in-flight flits = 5 (0 measured)
Buffer busy stall rate = 0
Buffer conflict stall rate = 0.000777778
Buffer full stall rate = 0
Buffer reserved stall rate = 0
Crossbar conflict stall rate = 0.000111111
latency change    = 0.0107268
throughput change = 0.0817536
Class 0:
Packet latency average = 15.9072
	minimum = 7
	maximum = 28
Network latency average = 15.9072
	minimum = 7
	maximum = 28
Slowest packet = 6377
Flit latency average = 15.9072
	minimum = 7
	maximum = 28
Slowest flit = 6377
Fragmentation average = 0
	minimum = 0
	maximum = 0
Injected packet rate average = 0.0506111
	minimum = 0.0445 (at node 7)
	maximum = 0.0585 (at node 4)
Accepted packet rate average = 0.0502778
	minimum = 0.045 (at node 1)
	maximum = 0.062 (at node 2)
Injected flit rate average = 0.0506111
	minimum = 0.0445 (at node 7)
	maximum = 0.0585 (at node 4)
Accepted flit rate average= 0.0502778
	minimum = 0.045 (at node 1)
	maximum = 0.062 (at node 2)
Injected packet length average = 1
Accepted packet length average = 1
Total in-flight flits = 12 (0 measured)
Buffer busy stall rate = 0
Buffer conflict stall rate = 0.000777778
Buffer full stall rate = 0
Buffer reserved stall rate = 0
Crossbar conflict stall rate = 0.000166667
latency change    = 0.0042949
throughput change = 0.0674033
Class 0:
Packet latency average = 15.9247
	minimum = 7
	maximum = 28
Network latency average = 15.9247
	minimum = 7
	maximum = 28
Slowest packet = 7476
Flit latency average = 15.9247
	minimum = 7
	maximum = 28
Slowest flit = 7476
Fragmentation average = 0
	minimum = 0
	maximum = 0
Injected packet rate average = 0.0461111
	minimum = 0.035 (at node 2)
	maximum = 0.055 (at node 8)
Accepted packet rate average = 0.0472222
	minimum = 0.039 (at node 5)
	maximum = 0.054 (at node 6)
Injected flit rate average = 0.0461111
	minimum = 0.035 (at node 2)
	maximum = 0.055 (at node 8)
Accepted flit rate average= 0.0472222
	minimum = 0.039 (at node 5)
	maximum = 0.054 (at node 6)
Injected packet length average = 1
Accepted packet length average = 1
Total in-flight flits = 2 (0 measured)
Buffer busy stall rate = 0
Buffer conflict stall rate = 0.000555556
Buffer full stall rate = 0
Buffer reserved stall rate = 0
Crossbar conflict stall rate = 0.000444444
latency change    = 0.0011004
throughput change = 0.0647059
Class 0:
Packet latency average = 16.0163
	minimum = 7
	maximum = 29
Network latency average = 16.0163
	minimum = 7
	maximum = 29
Slowest packet = 7895
Flit latency average = 16.0163
	minimum = 7
	maximum = 29
Slowest flit = 7895
Fragmentation average = 0
	minimum = 0
	maximum = 0
Injected packet rate average = 0.0473333
	minimum = 0.039 (at node 2)
	maximum = 0.0565 (at node 8)
Accepted packet rate average = 0.0477222
	minimum = 0.04 (at node 2)
	maximum = 0.0555 (at node 3)
Injected flit rate average = 0.0473333
	minimum = 0.039 (at node 2)
	maximum = 0.0565 (at node 8)
Accepted flit rate average= 0.0477222
	minimum = 0.04 (at node 2)
	maximum = 0.0555 (at node 3)
Injected packet length average = 1
Accepted packet length average = 1
Total in-flight flits = 5 (0 measured)
Buffer busy stall rate = 0
Buffer conflict stall rate = 0.000777778
Buffer full stall rate = 0
Buffer reserved stall rate = 0
Crossbar conflict stall rate = 0.000333333
latency change    = 0.00571868
throughput change = 0.0104773
Class 0:
Packet latency average = 16.2058
	minimum = 7
	maximum = 28
Network latency average = 16.2058
	minimum = 7
	maximum = 28
Slowest packet = 8033
Flit latency average = 16.2058
	minimum = 7
	maximum = 28
Slowest flit = 8033
Fragmentation average = 0
	minimum = 0
	maximum = 0
Injected packet rate average = 0.0501111
	minimum = 0.041 (at node 2)
	maximum = 0.057 (at node 7)
Accepted packet rate average = 0.0496667
	minimum = 0.044 (at node 0)
	maximum = 0.055 (at node 2)
Injected flit rate average = 0.0501111
	minimum = 0.041 (at node 2)
	maximum = 0.057 (at node 7)
Accepted flit rate average= 0.0496667
	minimum = 0.044 (at node 0)
	maximum = 0.055 (at node 2)
Injected packet length average = 1
Accepted packet length average = 1
Total in-flight flits = 9 (0 measured)
Buffer busy stall rate = 0
Buffer conflict stall rate = 0.00133333
Buffer full stall rate = 0
Buffer reserved stall rate = 0
Crossbar conflict stall rate = 0.000777778
latency change    = 0.0116945
throughput change = 0.0391499
Class 0:
Packet latency average = 16.1277
	minimum = 7
	maximum = 28
Network latency average = 16.1277
	minimum = 7
	maximum = 28
Slowest packet = 8033
Flit latency average = 16.1277
	minimum = 7
	maximum = 28
Slowest flit = 8033
Fragmentation average = 0
	minimum = 0
	maximum = 0
Injected packet rate average = 0.0497222
	minimum = 0.0435 (at node 4)
	maximum = 0.058 (at node 6)
Accepted packet rate average = 0.0496111
	minimum = 0.045 (at node 0)
	maximum = 0.0555 (at node 3)
Injected flit rate average = 0.0497222
	minimum = 0.0435 (at node 4)
	maximum = 0.058 (at node 6)
Accepted flit rate average= 0.0496111
	minimum = 0.045 (at node 0)
	maximum = 0.0555 (at node 3)
Injected packet length average = 1
Accepted packet length average = 1
Total in-flight flits = 7 (0 measured)
Buffer busy stall rate = 0
Buffer conflict stall rate = 0.00127778
Buffer full stall rate = 0
Buffer reserved stall rate = 0
Crossbar conflict stall rate = 0.000611111
latency change    = 0.00484615
throughput change = 0.00111982
Class 0:
Packet latency average = 15.8489
	minimum = 7
	maximum = 29
Network latency average = 15.8489
	minimum = 7
	maximum = 29
Slowest packet = 8954
Flit latency average = 15.8489
	minimum = 7
	maximum = 29
Slowest flit = 8954
Fragmentation average = 0
	minimum = 0
	maximum = 0
Injected packet rate average = 0.0521111
	minimum = 0.038 (at node 8)
	maximum = 0.064 (at node 6)
Accepted packet rate average = 0.0522222
	minimum = 0.038 (at node 8)
	maximum = 0.067 (at node 0)
Injected flit rate average = 0.0521111
	minimum = 0.038 (at node 8)
	maximum = 0.064 (at node 6)
Accepted flit rate average= 0.0522222
	minimum = 0.038 (at node 8)
	maximum = 0.067 (at node 0)
Injected packet length average = 1
Accepted packet length average = 1
Total in-flight flits = 6 (0 measured)
Buffer busy stall rate = 0
Buffer conflict stall rate = 0.000777778
Buffer full stall rate = 0
Buffer reserved stall rate = 0
Crossbar conflict stall rate = 0.000333333
latency change    = 0.0175863
throughput change = 0.05
Class 0:
Packet latency average = 15.899
	minimum = 7
	maximum = 29
Network latency average = 15.899
	minimum = 7
	maximum = 29
Slowest packet = 8954
Flit latency average = 15.899
	minimum = 7
	maximum = 29
Slowest flit = 8954
Fragmentation average = 0
	minimum = 0
	maximum = 0
Injected packet rate average = 0.0526667
	minimum = 0.0475 (at node 5)
	maximum = 0.0655 (at node 6)
Accepted packet rate average = 0.0522778
	minimum = 0.045 (at node 8)
	maximum = 0.0625 (at node 0)
Injected flit rate average = 0.0526667
	minimum = 0.0475 (at node 5)
	maximum = 0.0655 (at node 6)
Accepted flit rate average= 0.0522778
	minimum = 0.045 (at node 8)
	maximum = 0.0625 (at node 0)
Injected packet length average = 1
Accepted packet length average = 1
Total in-flight flits = 14 (0 measured)
Buffer busy stall rate = 0
Buffer conflict stall rate = 0.000722222
Buffer full stall rate = 0
Buffer reserved stall rate = 0
Crossbar conflict stall rate = 0.000222222
latency change    = 0.0031516
throughput change = 0.0010627
Class 0:
Packet latency average = 16.066
	minimum = 7
	maximum = 29
Network latency average = 16.066
	minimum = 7
	maximum = 29
Slowest packet = 10303
Flit latency average = 16.066
	minimum = 7
	maximum = 29
Slowest flit = 10303
Fragmentation average = 0
	minimum = 0
	maximum = 0
Injected packet rate average = 0.0514444
	minimum = 0.04 (at node 6)
	maximum = 0.067 (at node 1)
Accepted packet rate average = 0.0522222
	minimum = 0.042 (at node 1)
	maximum = 0.067 (at node 3)
Injected flit rate average = 0.0514444
	minimum = 0.04 (at node 6)
	maximum = 0.067 (at node 1)
Accepted flit rate average= 0.0522222
	minimum = 0.042 (at node 1)
	maximum = 0.067 (at node 3)
Injected packet length average = 1
Accepted packet length average = 1
Total in-flight flits = 7 (0 measured)
Buffer busy stall rate = 0
Buffer conflict stall rate = 0.000888889
Buffer full stall rate = 0
Buffer reserved stall rate = 0
Crossbar conflict stall rate = 0.000555556
latency change    = 0.0103893
throughput change = 0.00106383
Class 0:
Packet latency average = 16.0657
	minimum = 7
	maximum = 29
Network latency average = 16.0657
	minimum = 7
	maximum = 29
Slowest packet = 10303
Flit latency average = 16.0657
	minimum = 7
	maximum = 29
Slowest flit = 10303
Fragmentation average = 0
	minimum = 0
	maximum = 0
Injected packet rate average = 0.0529444
	minimum = 0.0405 (at node 6)
	maximum = 0.0635 (at node 1)
Accepted packet rate average = 0.0532778
	minimum = 0.046 (at node 1)
	maximum = 0.071 (at node 7)
Injected flit rate average = 0.0529444
	minimum = 0.0405 (at node 6)
	maximum = 0.0635 (at node 1)
Accepted flit rate average= 0.0532778
	minimum = 0.046 (at node 1)
	maximum = 0.071 (at node 7)
Injected packet length average = 1
Accepted packet length average = 1
Total in-flight flits = 8 (0 measured)
Buffer busy stall rate = 0.000111111
Buffer conflict stall rate = 0.00122222
Buffer full stall rate = 0
Buffer reserved stall rate = 0
Crossbar conflict stall rate = 0.000833333
latency change    = 1.64335e-05
throughput change = 0.0198123
Class 0:
Packet latency average = 15.8326
	minimum = 7
	maximum = 28
Network latency average = 15.8326
	minimum = 7
	maximum = 28
Slowest packet = 11034
Flit latency average = 15.8326
	minimum = 7
	maximum = 28
Slowest flit = 11034
Fragmentation average = 0
	minimum = 0
	maximum = 0
Injected packet rate average = 0.0527778
	minimum = 0.042 (at node 5)
	maximum = 0.065 (at node 0)
Accepted packet rate average = 0.0531111
	minimum = 0.047 (at node 1)
	maximum = 0.059 (at node 0)
Injected flit rate average = 0.0527778
	minimum = 0.042 (at node 5)
	maximum = 0.065 (at node 0)
Accepted flit rate average= 0.0531111
	minimum = 0.047 (at node 1)
	maximum = 0.059 (at node 0)
Injected packet length average = 1
Accepted packet length average = 1
Total in-flight flits = 5 (0 measured)
Buffer busy stall rate = 0
Buffer conflict stall rate = 0.001
Buffer full stall rate = 0
Buffer reserved stall rate = 0
Crossbar conflict stall rate = 0.000555556
latency change    = 0.0147201
throughput change = 0.00313808
Class 0:
Packet latency average = 16.0262
	minimum = 7
	maximum = 28
Network latency average = 16.0262
	minimum = 7
	maximum = 28
Slowest packet = 11034
Flit latency average = 16.0262
	minimum = 7
	maximum = 28
Slowest flit = 11034
Fragmentation average = 0
	minimum = 0
	maximum = 0
Injected packet rate average = 0.0507778
	minimum = 0.0465 (at node 1)
	maximum = 0.054 (at node 4)
Accepted packet rate average = 0.0508889
	minimum = 0.0435 (at node 1)
	maximum = 0.0565 (at node 0)
Injected flit rate average = 0.0507778
	minimum = 0.0465 (at node 1)
	maximum = 0.054 (at node 4)
Accepted flit rate average= 0.0508889
	minimum = 0.0435 (at node 1)
	maximum = 0.0565 (at node 0)
Injected packet length average = 1
Accepted packet length average = 1
Total in-flight flits = 6 (0 measured)
Buffer busy stall rate = 0
Buffer conflict stall rate = 0.000666667
Buffer full stall rate = 0
Buffer reserved stall rate = 0
Crossbar conflict stall rate = 0.000444444
latency change    = 0.012078
throughput change = 0.0436681
Class 0:
Packet latency average = 15.458
	minimum = 7
	maximum = 27
Network latency average = 15.458
	minimum = 7
	maximum = 27
Slowest packet = 11740
Flit latency average = 15.458
	minimum = 7
	maximum = 27
Slowest flit = 11740
Fragmentation average = 0
	minimum = 0
	maximum = 0
Injected packet rate average = 0.0491111
	minimum = 0.036 (at node 7)
	maximum = 0.058 (at node 8)
Accepted packet rate average = 0.049
	minimum = 0.037 (at node 0)
	maximum = 0.063 (at node 5)
Injected flit rate average = 0.0491111
	minimum = 0.036 (at node 7)
	maximum = 0.058 (at node 8)
Accepted flit rate average= 0.049
	minimum = 0.037 (at node 0)
	maximum = 0.063 (at node 5)
Injected packet length average = 1
Accepted packet length average = 1
Total in-flight flits = 7 (0 measured)
Buffer busy stall rate = 0
Buffer conflict stall rate = 0.000555556
Buffer full stall rate = 0
Buffer reserved stall rate = 0
Crossbar conflict stall rate = 0.000333333
latency change    = 0.0367544
throughput change = 0.0385488
Class 0:
Packet latency average = 15.8292
	minimum = 7
	maximum = 28
Network latency average = 15.8292
	minimum = 7
	maximum = 28
Slowest packet = 12245
Flit latency average = 15.8292
	minimum = 7
	maximum = 28
Slowest flit = 12245
Fragmentation average = 0
	minimum = 0
	maximum = 0
Injected packet rate average = 0.0494444
	minimum = 0.043 (at node 7)
	maximum = 0.0555 (at node 4)
Accepted packet rate average = 0.0494444
	minimum = 0.0415 (at node 4)
	maximum = 0.0595 (at node 5)
Injected flit rate average = 0.0494444
	minimum = 0.043 (at node 7)
	maximum = 0.0555 (at node 4)
Accepted flit rate average= 0.0494444
	minimum = 0.0415 (at node 4)
	maximum = 0.0595 (at node 5)
Injected packet length average = 1
Accepted packet length average = 1
Total in-flight flits = 6 (0 measured)
Buffer busy stall rate = 0
Buffer conflict stall rate = 0.000777778
Buffer full stall rate = 0
Buffer reserved stall rate = 0
Crossbar conflict stall rate = 0.000833333
latency change    = 0.023448
throughput change = 0.00898876
Class 0:
Packet latency average = 16.2775
	minimum = 7
	maximum = 29
Network latency average = 16.2775
	minimum = 7
	maximum = 29
Slowest packet = 12737
Flit latency average = 16.2775
	minimum = 7
	maximum = 29
Slowest flit = 12737
Fragmentation average = 0
	minimum = 0
	maximum = 0
Injected packet rate average = 0.0503333
	minimum = 0.032 (at node 5)
	maximum = 0.066 (at node 6)
Accepted packet rate average = 0.0504444
	minimum = 0.04 (at node 5)
	maximum = 0.063 (at node 8)
Injected flit rate average = 0.0503333
	minimum = 0.032 (at node 5)
	maximum = 0.066 (at node 6)
Accepted flit rate average= 0.0504444
	minimum = 0.04 (at node 5)
	maximum = 0.063 (at node 8)
Injected packet length average = 1
Accepted packet length average = 1
Total in-flight flits = 5 (0 measured)
Buffer busy stall rate = 0.000111111
Buffer conflict stall rate = 0.001
Buffer full stall rate = 0
Buffer reserved stall rate = 0
Crossbar conflict stall rate = 0.000888889
latency change    = 0.0275422
throughput change = 0.0198238
Class 0:
Packet latency average = 16.1324
	minimum = 7
	maximum = 29
Network latency average = 16.1324
	minimum = 7
	maximum = 29
Slowest packet = 12737
Flit latency average = 16.1324
	minimum = 7
	maximum = 29
Slowest flit = 12737
Fragmentation average = 0
	minimum = 0
	maximum = 0
Injected packet rate average = 0.0489444
	minimum = 0.039 (at node 5)
	maximum = 0.0555 (at node 6)
Accepted packet rate average = 0.0486667
	minimum = 0.041 (at node 5)
	maximum = 0.054 (at node 8)
Injected flit rate average = 0.0489444
	minimum = 0.039 (at node 5)
	maximum = 0.0555 (at node 6)
Accepted flit rate average= 0.0486667
	minimum = 0.041 (at node 5)
	maximum = 0.054 (at node 8)
Injected packet length average = 1
Accepted packet length average = 1
Total in-flight flits = 11 (0 measured)
Buffer busy stall rate = 5.55556e-05
Buffer conflict stall rate = 0.000944444
Buffer full stall rate = 0
Buffer reserved stall rate = 0
Crossbar conflict stall rate = 0.000666667
latency change    = 0.00899511
throughput change = 0.0365297
Class 0:
Packet latency average = 16.0024
	minimum = 7
	maximum = 28
Network latency average = 16.0024
	minimum = 7
	maximum = 28
Slowest packet = 13792
Flit latency average = 16.0024
	minimum = 7
	maximum = 28
Slowest flit = 13792
Fragmentation average = 0
	minimum = 0
	maximum = 0
Injected packet rate average = 0.0464444
	minimum = 0.039 (at node 6)
	maximum = 0.054 (at node 5)
Accepted packet rate average = 0.0467778
	minimum = 0.038 (at node 1)
	maximum = 0.055 (at node 5)
Injected flit rate average = 0.0464444
	minimum = 0.039 (at node 6)
	maximum = 0.054 (at node 5)
Accepted flit rate average= 0.0467778
	minimum = 0.038 (at node 1)
	maximum = 0.055 (at node 5)
Injected packet length average = 1
Accepted packet length average = 1
Total in-flight flits = 8 (0 measured)
Buffer busy stall rate = 0
Buffer conflict stall rate = 0.000888889
Buffer full stall rate = 0
Buffer reserved stall rate = 0
Crossbar conflict stall rate = 0
latency change    = 0.00812659
throughput change = 0.04038
Class 0:
Packet latency average = 16.0416
	minimum = 7
	maximum = 28
Network latency average = 16.0416
	minimum = 7
	maximum = 28
Slowest packet = 13792
Flit latency average = 16.0416
	minimum = 7
	maximum = 28
Slowest flit = 13792
Fragmentation average = 0
	minimum = 0
	maximum = 0
Injected packet rate average = 0.0476667
	minimum = 0.043 (at node 2)
	maximum = 0.0545 (at node 0)
Accepted packet rate average = 0.0481111
	minimum = 0.04 (at node 1)
	maximum = 0.0545 (at node 4)
Injected flit rate average = 0.0476667
	minimum = 0.043 (at node 2)
	maximum = 0.0545 (at node 0)
Accepted flit rate average= 0.0481111
	minimum = 0.04 (at node 1)
	maximum = 0.0545 (at node 4)
Injected packet length average = 1
Accepted packet length average = 1
Total in-flight flits = 3 (0 measured)
Buffer busy stall rate = 0
Buffer conflict stall rate = 0.00105556
Buffer full stall rate = 0
Buffer reserved stall rate = 0
Crossbar conflict stall rate = 5.55556e-05
latency change    = 0.00244335
throughput change = 0.0277136
Class 0:
Packet latency average = 15.6777
	minimum = 7
	maximum = 28
Network latency average = 15.6777
	minimum = 7
	maximum = 28
Slowest packet = 14598
Flit latency average = 15.6777
	minimum = 7
	maximum = 28
Slowest flit = 14598
Fragmentation average = 0
	minimum = 0
	maximum = 0
Injected packet rate average = 0.0537778
	minimum = 0.047 (at node 3)
	maximum = 0.06 (at node 1)
Accepted packet rate average = 0.0537778
	minimum = 0.045 (at node 3)
	maximum = 0.064 (at node 4)
Injected flit rate average = 0.0537778
	minimum = 0.047 (at node 3)
	maximum = 0.06 (at node 1)
Accepted flit rate average= 0.0537778
	minimum = 0.045 (at node 3)
	maximum = 0.064 (at node 4)
Injected packet length average = 1
Accepted packet length average = 1
Total in-flight flits = 3 (0 measured)
Buffer busy stall rate = 0
Buffer conflict stall rate = 0.00111111
Buffer full stall rate = 0
Buffer reserved stall rate = 0
Crossbar conflict stall rate = 0.000555556
latency change    = 0.0232103
throughput change = 0.105372
Class 0:
Packet latency average = 15.9629
	minimum = 7
	maximum = 29
Network latency average = 15.9629
	minimum = 7
	maximum = 29
Slowest packet = 15034
Flit latency average = 15.9629
	minimum = 7
	maximum = 29
Slowest flit = 15034
Fragmentation average = 0
	minimum = 0
	maximum = 0
Injected packet rate average = 0.0524444
	minimum = 0.0445 (at node 0)
	maximum = 0.0665 (at node 7)
Accepted packet rate average = 0.0524444
	minimum = 0.048 (at node 3)
	maximum = 0.058 (at node 4)
Injected flit rate average = 0.0524444
	minimum = 0.0445 (at node 0)
	maximum = 0.0665 (at node 7)
Accepted flit rate average= 0.0524444
	minimum = 0.048 (at node 3)
	maximum = 0.058 (at node 4)
Injected packet length average = 1
Accepted packet length average = 1
Total in-flight flits = 3 (0 measured)
Buffer busy stall rate = 0
Buffer conflict stall rate = 0.00127778
Buffer full stall rate = 0
Buffer reserved stall rate = 0
Crossbar conflict stall rate = 0.000333333
latency change    = 0.0178688
throughput change = 0.0254237
Class 0:
Packet latency average = 16.0819
	minimum = 7
	maximum = 28
Network latency average = 16.0819
	minimum = 7
	maximum = 28
Slowest packet = 15341
Flit latency average = 16.0819
	minimum = 7
	maximum = 28
Slowest flit = 15341
Fragmentation average = 0
	minimum = 0
	maximum = 0
Injected packet rate average = 0.0505556
	minimum = 0.041 (at node 7)
	maximum = 0.057 (at node 6)
Accepted packet rate average = 0.0502222
	minimum = 0.041 (at node 8)
	maximum = 0.057 (at node 4)
Injected flit rate average = 0.0505556
	minimum = 0.041 (at node 7)
	maximum = 0.057 (at node 6)
Accepted flit rate average= 0.0502222
	minimum = 0.041 (at node 8)
	maximum = 0.057 (at node 4)
Injected packet length average = 1
Accepted packet length average = 1
Total in-flight flits = 6 (0 measured)
Buffer busy stall rate = 0
Buffer conflict stall rate = 0.00155556
Buffer full stall rate = 0
Buffer reserved stall rate = 0
Crossbar conflict stall rate = 0.000888889
latency change    = 0.00739558
throughput change = 0.0442478
Class 0:
Packet latency average = 16.0367
	minimum = 7
	maximum = 28
Network latency average = 16.0367
	minimum = 7
	maximum = 28
Slowest packet = 15341
Flit latency average = 16.0367
	minimum = 7
	maximum = 28
Slowest flit = 15341
Fragmentation average = 0
	minimum = 0
	maximum = 0
Injected packet rate average = 0.05
	minimum = 0.04 (at node 3)
	maximum = 0.06 (at node 6)
Accepted packet rate average = 0.0498889
	minimum = 0.0435 (at node 2)
	maximum = 0.0565 (at node 4)
Injected flit rate average = 0.05
	minimum = 0.04 (at node 3)
	maximum = 0.06 (at node 6)
Accepted flit rate average= 0.0498889
	minimum = 0.0435 (at node 2)
	maximum = 0.0565 (at node 4)
Injected packet length average = 1
Accepted packet length average = 1
Total in-flight flits = 5 (0 measured)
Buffer busy stall rate = 0
Buffer conflict stall rate = 0.00122222
Buffer full stall rate = 0
Buffer reserved stall rate = 0
Crossbar conflict stall rate = 0.000888889
latency change    = 0.00281292
throughput change = 0.00668151
Class 0:
Packet latency average = 15.9133
	minimum = 7
	maximum = 29
Network latency average = 15.9133
	minimum = 7
	maximum = 29
Slowest packet = 16360
Flit latency average = 15.9133
	minimum = 7
	maximum = 29
Slowest flit = 16360
Fragmentation average = 0
	minimum = 0
	maximum = 0
Injected packet rate average = 0.0555556
	minimum = 0.046 (at node 8)
	maximum = 0.065 (at node 3)
Accepted packet rate average = 0.0551111
	minimum = 0.039 (at node 0)
	maximum = 0.064 (at node 1)
Injected flit rate average = 0.0555556
	minimum = 0.046 (at node 8)
	maximum = 0.065 (at node 3)
Accepted flit rate average= 0.0551111
	minimum = 0.039 (at node 0)
	maximum = 0.064 (at node 1)
Injected packet length average = 1
Accepted packet length average = 1
Total in-flight flits = 9 (0 measured)
Buffer busy stall rate = 0.000111111
Buffer conflict stall rate = 0.00144444
Buffer full stall rate = 0
Buffer reserved stall rate = 0
Crossbar conflict stall rate = 0.000666667
latency change    = 0.00775715
throughput change = 0.0947581
Class 0:
Packet latency average = 15.7894
	minimum = 7
	maximum = 29
Network latency average = 15.7894
	minimum = 7
	maximum = 29
Slowest packet = 16360
Flit latency average = 15.7894
	minimum = 7
	maximum = 29
Slowest flit = 16360
Fragmentation average = 0
	minimum = 0
	maximum = 0
Injected packet rate average = 0.0522778
	minimum = 0.0465 (at node 8)
	maximum = 0.061 (at node 0)
Accepted packet rate average = 0.0522222
	minimum = 0.0435 (at node 0)
	maximum = 0.061 (at node 3)
Injected flit rate average = 0.0522778
	minimum = 0.0465 (at node 8)
	maximum = 0.061 (at node 0)
Accepted flit rate average= 0.0522222
	minimum = 0.0435 (at node 0)
	maximum = 0.061 (at node 3)
Injected packet length average = 1
Accepted packet length average = 1
Total in-flight flits = 6 (0 measured)
Buffer busy stall rate = 5.55556e-05
Buffer conflict stall rate = 0.000944444
Buffer full stall rate = 0
Buffer reserved stall rate = 0
Crossbar conflict stall rate = 0.000722222
latency change    = 0.00784989
throughput change = 0.0553191
Class 0:
Packet latency average = 16.1437
	minimum = 7
	maximum = 28
Network latency average = 16.1437
	minimum = 7
	maximum = 28
Slowest packet = 17294
Flit latency average = 16.1437
	minimum = 7
	maximum = 28
Slowest flit = 17294
Fragmentation average = 0
	minimum = 0
	maximum = 0
Injected packet rate average = 0.0542222
	minimum = 0.045 (at node 0)
	maximum = 0.062 (at node 3)
Accepted packet rate average = 0.0541111
	minimum = 0.045 (at node 3)
	maximum = 0.06 (at node 8)
Injected flit rate average = 0.0542222
	minimum = 0.045 (at node 0)
	maximum = 0.062 (at node 3)
Accepted flit rate average= 0.0541111
	minimum = 0.045 (at node 3)
	maximum = 0.06 (at node 8)
Injected packet length average = 1
Accepted packet length average = 1
Total in-flight flits = 7 (0 measured)
Buffer busy stall rate = 0
Buffer conflict stall rate = 0.000666667
Buffer full stall rate = 0
Buffer reserved stall rate = 0
Crossbar conflict stall rate = 0.000111111
latency change    = 0.0219513
throughput change = 0.0349076
Class 0:
Packet latency average = 15.8275
	minimum = 7
	maximum = 30
Network latency average = 15.8275
	minimum = 7
	maximum = 30
Slowest packet = 17869
Flit latency average = 15.8275
	minimum = 7
	maximum = 30
Slowest flit = 17869
Fragmentation average = 0
	minimum = 0
	maximum = 0
Injected packet rate average = 0.0521667
	minimum = 0.046 (at node 0)
	maximum = 0.055 (at node 3)
Accepted packet rate average = 0.0521667
	minimum = 0.045 (at node 5)
	maximum = 0.057 (at node 4)
Injected flit rate average = 0.0521667
	minimum = 0.046 (at node 0)
	maximum = 0.055 (at node 3)
Accepted flit rate average= 0.0521667
	minimum = 0.045 (at node 5)
	maximum = 0.057 (at node 4)
Injected packet length average = 1
Accepted packet length average = 1
Total in-flight flits = 6 (0 measured)
Buffer busy stall rate = 0
Buffer conflict stall rate = 0.00111111
Buffer full stall rate = 0
Buffer reserved stall rate = 0
Crossbar conflict stall rate = 0.000277778
latency change    = 0.0199818
throughput change = 0.0372737
Class 0:
Packet latency average = 15.8465
	minimum = 7
	maximum = 28
Network latency average = 15.8465
	minimum = 7
	maximum = 28
Slowest packet = 18220
Flit latency average = 15.8465
	minimum = 7
	maximum = 28
Slowest flit = 18220
Fragmentation average = 0
	minimum = 0
	maximum = 0
Injected packet rate average = 0.0495556
	minimum = 0.039 (at node 1)
	maximum = 0.059 (at node 3)
Accepted packet rate average = 0.0492222
	minimum = 0.041 (at node 6)
	maximum = 0.063 (at node 2)
Injected flit rate average = 0.0495556
	minimum = 0.039 (at node 1)
	maximum = 0.059 (at node 3)
Accepted flit rate average= 0.0492222
	minimum = 0.041 (at node 6)
	maximum = 0.063 (at node 2)
Injected packet length average = 1
Accepted packet length average = 1
Total in-flight flits = 9 (0 measured)
Buffer busy stall rate = 0
Buffer conflict stall rate = 0.00155556
Buffer full stall rate = 0
Buffer reserved stall rate = 0
Crossbar conflict stall rate = 0.000444444
latency change    = 0.00120059
throughput change = 0.0598194
Class 0:
Packet latency average = 15.9676
	minimum = 7
	maximum = 28
Network latency average = 15.9676
	minimum = 7
	maximum = 28
Slowest packet = 18220
Flit latency average = 15.9676
	minimum = 7
	maximum = 28
Slowest flit = 18220
Fragmentation average = 0
	minimum = 0
	maximum = 0
Injected packet rate average = 0.0478889
	minimum = 0.0385 (at node 1)
	maximum = 0.0535 (at node 3)
Accepted packet rate average = 0.048
	minimum = 0.042 (at node 6)
	maximum = 0.0515 (at node 2)
Injected flit rate average = 0.0478889
	minimum = 0.0385 (at node 1)
	maximum = 0.0535 (at node 3)
Accepted flit rate average= 0.048
	minimum = 0.042 (at node 6)
	maximum = 0.0515 (at node 2)
Injected packet length average = 1
Accepted packet length average = 1
Total in-flight flits = 4 (0 measured)
Buffer busy stall rate = 0
Buffer conflict stall rate = 0.00144444
Buffer full stall rate = 0
Buffer reserved stall rate = 0
Crossbar conflict stall rate = 0.000444444
latency change    = 0.00758358
throughput change = 0.025463
Class 0:
Packet latency average = 15.3186
	minimum = 7
	maximum = 27
Network latency average = 15.3186
	minimum = 7
	maximum = 27
Slowest packet = 18972
Flit latency average = 15.3186
	minimum = 7
	maximum = 27
Slowest flit = 18972
Fragmentation average = 0
	minimum = 0
	maximum = 0
Injected packet rate average = 0.0508889
	minimum = 0.043 (at node 8)
	maximum = 0.061 (at node 7)
Accepted packet rate average = 0.0502222
	minimum = 0.039 (at node 8)
	maximum = 0.06 (at node 6)
Injected flit rate average = 0.0508889
	minimum = 0.043 (at node 8)
	maximum = 0.061 (at node 7)
Accepted flit rate average= 0.0502222
	minimum = 0.039 (at node 8)
	maximum = 0.06 (at node 6)
Injected packet length average = 1
Accepted packet length average = 1
Total in-flight flits = 10 (0 measured)
Buffer busy stall rate = 0
Buffer conflict stall rate = 0.000777778
Buffer full stall rate = 0
Buffer reserved stall rate = 0
Crossbar conflict stall rate = 0.000444444
latency change    = 0.0423674
throughput change = 0.0442478
Class 0:
Packet latency average = 15.744
	minimum = 7
	maximum = 27
Network latency average = 15.744
	minimum = 7
	maximum = 27
Slowest packet = 18972
Flit latency average = 15.744
	minimum = 7
	maximum = 27
Slowest flit = 18972
Fragmentation average = 0
	minimum = 0
	maximum = 0
Injected packet rate average = 0.0506111
	minimum = 0.0435 (at node 8)
	maximum = 0.056 (at node 2)
Accepted packet rate average = 0.0505556
	minimum = 0.045 (at node 7)
	maximum = 0.0565 (at node 2)
Injected flit rate average = 0.0506111
	minimum = 0.0435 (at node 8)
	maximum = 0.056 (at node 2)
Accepted flit rate average= 0.0505556
	minimum = 0.045 (at node 7)
	maximum = 0.0565 (at node 2)
Injected packet length average = 1
Accepted packet length average = 1
Total in-flight flits = 5 (0 measured)
Buffer busy stall rate = 0
Buffer conflict stall rate = 0.000944444
Buffer full stall rate = 0
Buffer reserved stall rate = 0
Crossbar conflict stall rate = 0.000388889
latency change    = 0.0270181
throughput change = 0.00659341
Class 0:
Packet latency average = 15.9844
	minimum = 7
	maximum = 32
Network latency average = 15.9844
	minimum = 7
	maximum = 32
Slowest packet = 20276
Flit latency average = 15.9844
	minimum = 7
	maximum = 32
Slowest flit = 20276
Fragmentation average = 0
	minimum = 0
	maximum = 0
Injected packet rate average = 0.05
	minimum = 0.035 (at node 1)
	maximum = 0.067 (at node 6)
Accepted packet rate average = 0.0497778
	minimum = 0.033 (at node 0)
	maximum = 0.061 (at node 6)
Injected flit rate average = 0.05
	minimum = 0.035 (at node 1)
	maximum = 0.067 (at node 6)
Accepted flit rate average= 0.0497778
	minimum = 0.033 (at node 0)
	maximum = 0.061 (at node 6)
Injected packet length average = 1
Accepted packet length average = 1
Total in-flight flits = 7 (0 measured)
Buffer busy stall rate = 0
Buffer conflict stall rate = 0.00155556
Buffer full stall rate = 0
Buffer reserved stall rate = 0
Crossbar conflict stall rate = 0.000444444
latency change    = 0.0150409
throughput change = 0.015625
Class 0:
Packet latency average = 15.5881
	minimum = 7
	maximum = 32
Network latency average = 15.5881
	minimum = 7
	maximum = 32
Slowest packet = 20276
Flit latency average = 15.5881
	minimum = 7
	maximum = 32
Slowest flit = 20276
Fragmentation average = 0
	minimum = 0
	maximum = 0
Injected packet rate average = 0.0476667
	minimum = 0.037 (at node 1)
	maximum = 0.0585 (at node 7)
Accepted packet rate average = 0.0476111
	minimum = 0.0405 (at node 0)
	maximum = 0.058 (at node 6)
Injected flit rate average = 0.0476667
	minimum = 0.037 (at node 1)
	maximum = 0.0585 (at node 7)
Accepted flit rate average= 0.0476111
	minimum = 0.0405 (at node 0)
	maximum = 0.058 (at node 6)
Injected packet length average = 1
Accepted packet length average = 1
Total in-flight flits = 6 (0 measured)
Buffer busy stall rate = 0
Buffer conflict stall rate = 0.001
Buffer full stall rate = 0
Buffer reserved stall rate = 0
Crossbar conflict stall rate = 0.000333333
latency change    = 0.0254218
throughput change = 0.0455076
Class 0:
Packet latency average = 15.423
	minimum = 7
	maximum = 28
Network latency average = 15.423
	minimum = 7
	maximum = 28
Slowest packet = 20942
Flit latency average = 15.423
	minimum = 7
	maximum = 28
Slowest flit = 20942
Fragmentation average = 0
	minimum = 0
	maximum = 0
Injected packet rate average = 0.0484444
	minimum = 0.042 (at node 0)
	maximum = 0.058 (at node 3)
Accepted packet rate average = 0.0483333
	minimum = 0.043 (at node 8)
	maximum = 0.058 (at node 3)
Injected flit rate average = 0.0484444
	minimum = 0.042 (at node 0)
	maximum = 0.058 (at node 3)
Accepted flit rate average= 0.0483333
	minimum = 0.043 (at node 8)
	maximum = 0.058 (at node 3)
Injected packet length average = 1
Accepted packet length average = 1
Total in-flight flits = 7 (0 measured)
Buffer busy stall rate = 0
Buffer conflict stall rate = 0.00133333
Buffer full stall rate = 0
Buffer reserved stall rate = 0
Crossbar conflict stall rate = 0.000333333
latency change    = 0.0107054
throughput change = 0.0149425
Class 0:
Packet latency average = 15.5876
	minimum = 7
	maximum = 29
Network latency average = 15.5876
	minimum = 7
	maximum = 29
Slowest packet = 21410
Flit latency average = 15.5876
	minimum = 7
	maximum = 29
Slowest flit = 21410
Fragmentation average = 0
	minimum = 0
	maximum = 0
Injected packet rate average = 0.0482778
	minimum = 0.042 (at node 1)
	maximum = 0.059 (at node 3)
Accepted packet rate average = 0.0482222
	minimum = 0.041 (at node 4)
	maximum = 0.0585 (at node 3)
Injected flit rate average = 0.0482778
	minimum = 0.042 (at node 1)
	maximum = 0.059 (at node 3)
Accepted flit rate average= 0.0482222
	minimum = 0.041 (at node 4)
	maximum = 0.0585 (at node 3)
Injected packet length average = 1
Accepted packet length average = 1
Total in-flight flits = 7 (0 measured)
Buffer busy stall rate = 0
Buffer conflict stall rate = 0.001
Buffer full stall rate = 0
Buffer reserved stall rate = 0
Crossbar conflict stall rate = 0.000388889
latency change    = 0.0105577
throughput change = 0.00230415
Class 0:
Packet latency average = 16.3049
	minimum = 7
	maximum = 28
Network latency average = 16.3049
	minimum = 7
	maximum = 28
Slowest packet = 21993
Flit latency average = 16.3049
	minimum = 7
	maximum = 28
Slowest flit = 21993
Fragmentation average = 0
	minimum = 0
	maximum = 0
Injected packet rate average = 0.0498889
	minimum = 0.034 (at node 7)
	maximum = 0.06 (at node 1)
Accepted packet rate average = 0.0495556
	minimum = 0.042 (at node 6)
	maximum = 0.067 (at node 1)
Injected flit rate average = 0.0498889
	minimum = 0.034 (at node 7)
	maximum = 0.06 (at node 1)
Accepted flit rate average= 0.0495556
	minimum = 0.042 (at node 6)
	maximum = 0.067 (at node 1)
Injected packet length average = 1
Accepted packet length average = 1
Total in-flight flits = 10 (0 measured)
Buffer busy stall rate = 0
Buffer conflict stall rate = 0.000777778
Buffer full stall rate = 0
Buffer reserved stall rate = 0
Crossbar conflict stall rate = 0.000333333
latency change    = 0.0439974
throughput change = 0.0269058
Class 0:
Packet latency average = 16.2127
	minimum = 7
	maximum = 28
Network latency average = 16.2127
	minimum = 7
	maximum = 28
Slowest packet = 21993
Flit latency average = 16.2127
	minimum = 7
	maximum = 28
Slowest flit = 21993
Fragmentation average = 0
	minimum = 0
	maximum = 0
Injected packet rate average = 0.0492222
	minimum = 0.041 (at node 7)
	maximum = 0.0575 (at node 0)
Accepted packet rate average = 0.0491111
	minimum = 0.0405 (at node 3)
	maximum = 0.0565 (at node 0)
Injected flit rate average = 0.0492222
	minimum = 0.041 (at node 7)
	maximum = 0.0575 (at node 0)
Accepted flit rate average= 0.0491111
	minimum = 0.0405 (at node 3)
	maximum = 0.0565 (at node 0)
Injected packet length average = 1
Accepted packet length average = 1
Total in-flight flits = 9 (0 measured)
Buffer busy stall rate = 0
Buffer conflict stall rate = 0.000666667
Buffer full stall rate = 0
Buffer reserved stall rate = 0
Crossbar conflict stall rate = 0.000388889
latency change    = 0.0056908
throughput change = 0.00904977
Class 0:
Packet latency average = 15.6026
	minimum = 7
	maximum = 28
Network latency average = 15.6026
	minimum = 7
	maximum = 28
Slowest packet = 22472
Flit latency average = 15.6026
	minimum = 7
	maximum = 28
Slowest flit = 22472
Fragmentation average = 0
	minimum = 0
	maximum = 0
Injected packet rate average = 0.0516667
	minimum = 0.044 (at node 0)
	maximum = 0.064 (at node 7)
Accepted packet rate average = 0.052
	minimum = 0.043 (at node 4)
	maximum = 0.058 (at node 1)
Injected flit rate average = 0.0516667
	minimum = 0.044 (at node 0)
	maximum = 0.064 (at node 7)
Accepted flit rate average= 0.052
	minimum = 0.043 (at node 4)
	maximum = 0.058 (at node 1)
Injected packet length average = 1
Accepted packet length average = 1
Total in-flight flits = 6 (0 measured)
Buffer busy stall rate = 0
Buffer conflict stall rate = 0.001
Buffer full stall rate = 0
Buffer reserved stall rate = 0
Crossbar conflict stall rate = 0.000444444
latency change    = 0.0391029
throughput change = 0.0555556
Class 0:
Packet latency average = 15.6464
	minimum = 7
	maximum = 28
Network latency average = 15.6464
	minimum = 7
	maximum = 28
Slowest packet = 22472
Flit latency average = 15.6464
	minimum = 7
	maximum = 28
Slowest flit = 22472
Fragmentation average = 0
	minimum = 0
	maximum = 0
Injected packet rate average = 0.0493333
	minimum = 0.038 (at node 0)
	maximum = 0.0625 (at node 7)
Accepted packet rate average = 0.0493333
	minimum = 0.045 (at node 4)
	maximum = 0.054 (at node 6)
Injected flit rate average = 0.0493333
	minimum = 0.038 (at node 0)
	maximum = 0.0625 (at node 7)
Accepted flit rate average= 0.0493333
	minimum = 0.045 (at node 4)
	maximum = 0.054 (at node 6)
Injected packet length average = 1
Accepted packet length average = 1
Total in-flight flits = 9 (0 measured)
Buffer busy stall rate = 0
Buffer conflict stall rate = 0.000833333
Buffer full stall rate = 0
Buffer reserved stall rate = 0
Crossbar conflict stall rate = 0.000388889
latency change    = 0.00280143
throughput change = 0.0540541
Class 0:
Packet latency average = 15.8484
	minimum = 7
	maximum = 28
Network latency average = 15.8484
	minimum = 7
	maximum = 28
Slowest packet = 23374
Flit latency average = 15.8484
	minimum = 7
	maximum = 28
Slowest flit = 23374
Fragmentation average = 0
	minimum = 0
	maximum = 0
Injected packet rate average = 0.0502222
	minimum = 0.041 (at node 2)
	maximum = 0.06 (at node 4)
Accepted packet rate average = 0.0505556
	minimum = 0.037 (at node 4)
	maximum = 0.063 (at node 2)
Injected flit rate average = 0.0502222
	minimum = 0.041 (at node 2)
	maximum = 0.06 (at node 4)
Accepted flit rate average= 0.0505556
	minimum = 0.037 (at node 4)
	maximum = 0.063 (at node 2)
Injected packet length average = 1
Accepted packet length average = 1
Total in-flight flits = 6 (0 measured)
Buffer busy stall rate = 0.000111111
Buffer conflict stall rate = 0.000777778
Buffer full stall rate = 0
Buffer reserved stall rate = 0
Crossbar conflict stall rate = 0.000444444
latency change    = 0.012743
throughput change = 0.0241758
Class 0:
Packet latency average = 15.9011
	minimum = 7
	maximum = 29
Network latency average = 15.9011
	minimum = 7
	maximum = 29
Slowest packet = 24086
Flit latency average = 15.9011
	minimum = 7
	maximum = 29
Slowest flit = 24086
Fragmentation average = 0
	minimum = 0
	maximum = 0
Injected packet rate average = 0.049
	minimum = 0.0405 (at node 7)
	maximum = 0.058 (at node 4)
Accepted packet rate average = 0.0488889
	minimum = 0.042 (at node 8)
	maximum = 0.0595 (at node 1)
Injected flit rate average = 0.049
	minimum = 0.0405 (at node 7)
	maximum = 0.058 (at node 4)
Accepted flit rate average= 0.0488889
	minimum = 0.042 (at node 8)
	maximum = 0.0595 (at node 1)
Injected packet length average = 1
Accepted packet length average = 1
Total in-flight flits = 11 (0 measured)
Buffer busy stall rate = 5.55556e-05
Buffer conflict stall rate = 0.000722222
Buffer full stall rate = 0
Buffer reserved stall rate = 0
Crossbar conflict stall rate = 0.000388889
latency change    = 0.00331956
throughput change = 0.0340909
Class 0:
Packet latency average = 16.0638
	minimum = 7
	maximum = 28
Network latency average = 16.0638
	minimum = 7
	maximum = 28
Slowest packet = 24387
Flit latency average = 16.0638
	minimum = 7
	maximum = 28
Slowest flit = 24387
Fragmentation average = 0
	minimum = 0
	maximum = 0
Injected packet rate average = 0.0478889
	minimum = 0.041 (at node 0)
	maximum = 0.058 (at node 4)
Accepted packet rate average = 0.0487778
	minimum = 0.042 (at node 4)
	maximum = 0.056 (at node 5)
Injected flit rate average = 0.0478889
	minimum = 0.041 (at node 0)
	maximum = 0.058 (at node 4)
Accepted flit rate average= 0.0487778
	minimum = 0.042 (at node 4)
	maximum = 0.056 (at node 5)
Injected packet length average = 1
Accepted packet length average = 1
Total in-flight flits = 3 (0 measured)
Buffer busy stall rate = 0
Buffer conflict stall rate = 0.000888889
Buffer full stall rate = 0
Buffer reserved stall rate = 0
Crossbar conflict stall rate = 0.000555556
latency change    = 0.0101249
throughput change = 0.0022779
Class 0:
Packet latency average = 16.0854
	minimum = 7
	maximum = 28
Network latency average = 16.0854
	minimum = 7
	maximum = 28
Slowest packet = 24387
Flit latency average = 16.0854
	minimum = 7
	maximum = 28
Slowest flit = 24387
Fragmentation average = 0
	minimum = 0
	maximum = 0
Injected packet rate average = 0.0496667
	minimum = 0.041 (at node 0)
	maximum = 0.0635 (at node 3)
Accepted packet rate average = 0.0501111
	minimum = 0.0465 (at node 3)
	maximum = 0.055 (at node 0)
Injected flit rate average = 0.0496667
	minimum = 0.041 (at node 0)
	maximum = 0.0635 (at node 3)
Accepted flit rate average= 0.0501111
	minimum = 0.0465 (at node 3)
	maximum = 0.055 (at node 0)
Injected packet length average = 1
Accepted packet length average = 1
Total in-flight flits = 3 (0 measured)
Buffer busy stall rate = 0
Buffer conflict stall rate = 0.000722222
Buffer full stall rate = 0
Buffer reserved stall rate = 0
Crossbar conflict stall rate = 0.0005
latency change    = 0.00134187
throughput change = 0.0266075
Class 0:
Packet latency average = 15.7293
	minimum = 7
	maximum = 28
Network latency average = 15.7293
	minimum = 7
	maximum = 28
Slowest packet = 25376
Flit latency average = 15.7293
	minimum = 7
	maximum = 28
Slowest flit = 25376
Fragmentation average = 0
	minimum = 0
	maximum = 0
Injected packet rate average = 0.0545556
	minimum = 0.047 (at node 1)
	maximum = 0.064 (at node 6)
Accepted packet rate average = 0.0537778
	minimum = 0.049 (at node 5)
	maximum = 0.061 (at node 7)
Injected flit rate average = 0.0545556
	minimum = 0.047 (at node 1)
	maximum = 0.064 (at node 6)
Accepted flit rate average= 0.0537778
	minimum = 0.049 (at node 5)
	maximum = 0.061 (at node 7)
Injected packet length average = 1
Accepted packet length average = 1
Total in-flight flits = 10 (0 measured)
Buffer busy stall rate = 0
Buffer conflict stall rate = 0.00111111
Buffer full stall rate = 0
Buffer reserved stall rate = 0
Crossbar conflict stall rate = 0.000222222
latency change    = 0.0226346
throughput change = 0.0681818
Class 0:
Packet latency average = 15.7636
	minimum = 7
	maximum = 29
Network latency average = 15.7636
	minimum = 7
	maximum = 29
Slowest packet = 25822
Flit latency average = 15.7636
	minimum = 7
	maximum = 29
Slowest flit = 25822
Fragmentation average = 0
	minimum = 0
	maximum = 0
Injected packet rate average = 0.0523333
	minimum = 0.046 (at node 3)
	maximum = 0.06 (at node 8)
Accepted packet rate average = 0.0521667
	minimum = 0.0445 (at node 5)
	maximum = 0.06 (at node 8)
Injected flit rate average = 0.0523333
	minimum = 0.046 (at node 3)
	maximum = 0.06 (at node 8)
Accepted flit rate average= 0.0521667
	minimum = 0.0445 (at node 5)
	maximum = 0.06 (at node 8)
Injected packet length average = 1
Accepted packet length average = 1
Total in-flight flits = 6 (0 measured)
Buffer busy stall rate = 0
Buffer conflict stall rate = 0.00155556
Buffer full stall rate = 0
Buffer reserved stall rate = 0
Crossbar conflict stall rate = 0.000333333
latency change    = 0.00217206
throughput change = 0.0308839
Class 0:
Packet latency average = 16.2291
	minimum = 7
	maximum = 29
Network latency average = 16.2291
	minimum = 7
	maximum = 29
Slowest packet = 26358
Flit latency average = 16.2291
	minimum = 7
	maximum = 29
Slowest flit = 26358
Fragmentation average = 0
	minimum = 0
	maximum = 0
Injected packet rate average = 0.0505556
	minimum = 0.035 (at node 3)
	maximum = 0.068 (at node 4)
Accepted packet rate average = 0.0504444
	minimum = 0.044 (at node 0)
	maximum = 0.059 (at node 8)
Injected flit rate average = 0.0505556
	minimum = 0.035 (at node 3)
	maximum = 0.068 (at node 4)
Accepted flit rate average= 0.0504444
	minimum = 0.044 (at node 0)
	maximum = 0.059 (at node 8)
Injected packet length average = 1
Accepted packet length average = 1
Total in-flight flits = 7 (0 measured)
Buffer busy stall rate = 0
Buffer conflict stall rate = 0.00166667
Buffer full stall rate = 0
Buffer reserved stall rate = 0
Crossbar conflict stall rate = 0.000555556
latency change    = 0.0286829
throughput change = 0.034141
Class 0:
Packet latency average = 16.1137
	minimum = 7
	maximum = 29
Network latency average = 16.1137
	minimum = 7
	maximum = 29
Slowest packet = 26358
Flit latency average = 16.1137
	minimum = 7
	maximum = 29
Slowest flit = 26358
Fragmentation average = 0
	minimum = 0
	maximum = 0
Injected packet rate average = 0.0503889
	minimum = 0.044 (at node 5)
	maximum = 0.0565 (at node 0)
Accepted packet rate average = 0.0503333
	minimum = 0.042 (at node 4)
	maximum = 0.058 (at node 2)
Injected flit rate average = 0.0503889
	minimum = 0.044 (at node 5)
	maximum = 0.0565 (at node 0)
Accepted flit rate average= 0.0503333
	minimum = 0.042 (at node 4)
	maximum = 0.058 (at node 2)
Injected packet length average = 1
Accepted packet length average = 1
Total in-flight flits = 7 (0 measured)
Buffer busy stall rate = 5.55556e-05
Buffer conflict stall rate = 0.00111111
Buffer full stall rate = 0
Buffer reserved stall rate = 0
Crossbar conflict stall rate = 0.000555556
latency change    = 0.00716089
throughput change = 0.00220751
Class 0:
Packet latency average = 16.031
	minimum = 7
	maximum = 29
Network latency average = 16.031
	minimum = 7
	maximum = 29
Slowest packet = 27376
Flit latency average = 16.031
	minimum = 7
	maximum = 29
Slowest flit = 27376
Fragmentation average = 0
	minimum = 0
	maximum = 0
Injected packet rate average = 0.0465556
	minimum = 0.036 (at node 3)
	maximum = 0.061 (at node 1)
Accepted packet rate average = 0.0466667
	minimum = 0.043 (at node 0)
	maximum = 0.052 (at node 7)
Injected flit rate average = 0.0465556
	minimum = 0.036 (at node 3)
	maximum = 0.061 (at node 1)
Accepted flit rate average= 0.0466667
	minimum = 0.043 (at node 0)
	maximum = 0.052 (at node 7)
Injected packet length average = 1
Accepted packet length average = 1
Total in-flight flits = 6 (0 measured)
Buffer busy stall rate = 0
Buffer conflict stall rate = 0.001
Buffer full stall rate = 0
Buffer reserved stall rate = 0
Crossbar conflict stall rate = 0.000333333
latency change    = 0.0051609
throughput change = 0.0785714
Class 0:
Packet latency average = 16.0149
	minimum = 7
	maximum = 29
Network latency average = 16.0149
	minimum = 7
	maximum = 29
Slowest packet = 27376
Flit latency average = 16.0149
	minimum = 7
	maximum = 29
Slowest flit = 27376
Fragmentation average = 0
	minimum = 0
	maximum = 0
Injected packet rate average = 0.0485
	minimum = 0.041 (at node 7)
	maximum = 0.06 (at node 1)
Accepted packet rate average = 0.0486111
	minimum = 0.043 (at node 0)
	maximum = 0.051 (at node 4)
Injected flit rate average = 0.0485
	minimum = 0.041 (at node 7)
	maximum = 0.06 (at node 1)
Accepted flit rate average= 0.0486111
	minimum = 0.043 (at node 0)
	maximum = 0.051 (at node 4)
Injected packet length average = 1
Accepted packet length average = 1
Total in-flight flits = 5 (0 measured)
Buffer busy stall rate = 0
Buffer conflict stall rate = 0.000944444
Buffer full stall rate = 0
Buffer reserved stall rate = 0
Crossbar conflict stall rate = 0.000388889
latency change    = 0.00100502
throughput change = 0.04
Class 0:
Packet latency average = 15.3971
	minimum = 7
	maximum = 28
Network latency average = 15.3971
	minimum = 7
	maximum = 28
Slowest packet = 27945
Flit latency average = 15.3971
	minimum = 7
	maximum = 28
Slowest flit = 27945
Fragmentation average = 0
	minimum = 0
	maximum = 0
Injected packet rate average = 0.0545556
	minimum = 0.049 (at node 4)
	maximum = 0.059 (at node 1)
Accepted packet rate average = 0.0545556
	minimum = 0.046 (at node 4)
	maximum = 0.064 (at node 7)
Injected flit rate average = 0.0545556
	minimum = 0.049 (at node 4)
	maximum = 0.059 (at node 1)
Accepted flit rate average= 0.0545556
	minimum = 0.046 (at node 4)
	maximum = 0.064 (at node 7)
Injected packet length average = 1
Accepted packet length average = 1
Total in-flight flits = 5 (0 measured)
Buffer busy stall rate = 0
Buffer conflict stall rate = 0.000888889
Buffer full stall rate = 0
Buffer reserved stall rate = 0
Crossbar conflict stall rate = 0.000333333
latency change    = 0.0401184
throughput change = 0.108961
Class 0:
Packet latency average = 15.7245
	minimum = 7
	maximum = 28
Network latency average = 15.7245
	minimum = 7
	maximum = 28
Slowest packet = 27945
Flit latency average = 15.7245
	minimum = 7
	maximum = 28
Slowest flit = 27945
Fragmentation average = 0
	minimum = 0
	maximum = 0
Injected packet rate average = 0.0522222
	minimum = 0.0435 (at node 7)
	maximum = 0.058 (at node 6)
Accepted packet rate average = 0.0518333
	minimum = 0.0425 (at node 5)
	maximum = 0.06 (at node 1)
Injected flit rate average = 0.0522222
	minimum = 0.0435 (at node 7)
	maximum = 0.058 (at node 6)
Accepted flit rate average= 0.0518333
	minimum = 0.0425 (at node 5)
	maximum = 0.06 (at node 1)
Injected packet length average = 1
Accepted packet length average = 1
Total in-flight flits = 12 (0 measured)
Buffer busy stall rate = 5.55556e-05
Buffer conflict stall rate = 0.000833333
Buffer full stall rate = 0
Buffer reserved stall rate = 0
Crossbar conflict stall rate = 0.000333333
latency change    = 0.0208207
throughput change = 0.0525188
Class 0:
Packet latency average = 16
	minimum = 7
	maximum = 30
Network latency average = 16
	minimum = 7
	maximum = 30
Slowest packet = 28831
Flit latency average = 16
	minimum = 7
	maximum = 30
Slowest flit = 28831
Fragmentation average = 0
	minimum = 0
	maximum = 0
Injected packet rate average = 0.045
	minimum = 0.036 (at node 7)
	maximum = 0.057 (at node 3)
Accepted packet rate average = 0.0451111
	minimum = 0.035 (at node 6)
	maximum = 0.054 (at node 1)
Injected flit rate average = 0.045
	minimum = 0.036 (at node 7)
	maximum = 0.057 (at node 3)
Accepted flit rate average= 0.0451111
	minimum = 0.035 (at node 6)
	maximum = 0.054 (at node 1)
Injected packet length average = 1
Accepted packet length average = 1
Total in-flight flits = 11 (0 measured)
Buffer busy stall rate = 0
Buffer conflict stall rate = 0.00111111
Buffer full stall rate = 0
Buffer reserved stall rate = 0
Crossbar conflict stall rate = 0.00122222
latency change    = 0.017216
throughput change = 0.149015
Class 0:
Packet latency average = 16.0286
	minimum = 7
	maximum = 30
Network latency average = 16.0286
	minimum = 7
	maximum = 30
Slowest packet = 28831
Flit latency average = 16.0286
	minimum = 7
	maximum = 30
Slowest flit = 28831
Fragmentation average = 0
	minimum = 0
	maximum = 0
Injected packet rate average = 0.0480556
	minimum = 0.0405 (at node 4)
	maximum = 0.055 (at node 3)
Accepted packet rate average = 0.0486111
	minimum = 0.0405 (at node 3)
	maximum = 0.0565 (at node 4)
Injected flit rate average = 0.0480556
	minimum = 0.0405 (at node 4)
	maximum = 0.055 (at node 3)
Accepted flit rate average= 0.0486111
	minimum = 0.0405 (at node 3)
	maximum = 0.0565 (at node 4)
Injected packet length average = 1
Accepted packet length average = 1
Total in-flight flits = 2 (0 measured)
Buffer busy stall rate = 0
Buffer conflict stall rate = 0.00133333
Buffer full stall rate = 0
Buffer reserved stall rate = 0
Crossbar conflict stall rate = 0.000833333
latency change    = 0.00178253
throughput change = 0.072
Class 0:
Packet latency average = 16.3825
	minimum = 7
	maximum = 28
Network latency average = 16.3825
	minimum = 7
	maximum = 28
Slowest packet = 29709
Flit latency average = 16.3825
	minimum = 7
	maximum = 28
Slowest flit = 29709
Fragmentation average = 0
	minimum = 0
	maximum = 0
Injected packet rate average = 0.0488889
	minimum = 0.041 (at node 7)
	maximum = 0.058 (at node 0)
Accepted packet rate average = 0.0482222
	minimum = 0.043 (at node 6)
	maximum = 0.051 (at node 0)
Injected flit rate average = 0.0488889
	minimum = 0.041 (at node 7)
	maximum = 0.058 (at node 0)
Accepted flit rate average= 0.0482222
	minimum = 0.043 (at node 6)
	maximum = 0.051 (at node 0)
Injected packet length average = 1
Accepted packet length average = 1
Total in-flight flits = 8 (0 measured)
Buffer busy stall rate = 0
Buffer conflict stall rate = 0.001
Buffer full stall rate = 0
Buffer reserved stall rate = 0
Crossbar conflict stall rate = 0.000555556
latency change    = 0.0216034
throughput change = 0.00806452
Class 0:
Packet latency average = 16.3186
	minimum = 7
	maximum = 28
Network latency average = 16.3186
	minimum = 7
	maximum = 28
Slowest packet = 29709
Flit latency average = 16.3186
	minimum = 7
	maximum = 28
Slowest flit = 29709
Fragmentation average = 0
	minimum = 0
	maximum = 0
Injected packet rate average = 0.0507778
	minimum = 0.046 (at node 3)
	maximum = 0.058 (at node 0)
Accepted packet rate average = 0.0502222
	minimum = 0.045 (at node 2)
	maximum = 0.0555 (at node 3)
Injected flit rate average = 0.0507778
	minimum = 0.046 (at node 3)
	maximum = 0.058 (at node 0)
Accepted flit rate average= 0.0502222
	minimum = 0.045 (at node 2)
	maximum = 0.0555 (at node 3)
Injected packet length average = 1
Accepted packet length average = 1
Total in-flight flits = 12 (0 measured)
Buffer busy stall rate = 0
Buffer conflict stall rate = 0.00105556
Buffer full stall rate = 0
Buffer reserved stall rate = 0
Crossbar conflict stall rate = 0.0005
latency change    = 0.00391605
throughput change = 0.039823
Class 0:
Packet latency average = 15.8263
	minimum = 7
	maximum = 28
Network latency average = 15.8263
	minimum = 7
	maximum = 28
Slowest packet = 30620
Flit latency average = 15.8263
	minimum = 7
	maximum = 28
Slowest flit = 30620
Fragmentation average = 0
	minimum = 0
	maximum = 0
Injected packet rate average = 0.0515556
	minimum = 0.04 (at node 6)
	maximum = 0.065 (at node 7)
Accepted packet rate average = 0.0524444
	minimum = 0.043 (at node 3)
	maximum = 0.066 (at node 0)
Injected flit rate average = 0.0515556
	minimum = 0.04 (at node 6)
	maximum = 0.065 (at node 7)
Accepted flit rate average= 0.0524444
	minimum = 0.043 (at node 3)
	maximum = 0.066 (at node 0)
Injected packet length average = 1
Accepted packet length average = 1
Total in-flight flits = 4 (0 measured)
Buffer busy stall rate = 0
Buffer conflict stall rate = 0.001
Buffer full stall rate = 0
Buffer reserved stall rate = 0
Crossbar conflict stall rate = 0.000555556
latency change    = 0.0311073
throughput change = 0.0423729
Class 0:
Packet latency average = 15.9013
	minimum = 7
	maximum = 28
Network latency average = 15.9013
	minimum = 7
	maximum = 28
Slowest packet = 30620
Flit latency average = 15.9013
	minimum = 7
	maximum = 28
Slowest flit = 30620
Fragmentation average = 0
	minimum = 0
	maximum = 0
Injected packet rate average = 0.0502778
	minimum = 0.047 (at node 2)
	maximum = 0.058 (at node 1)
Accepted packet rate average = 0.0506667
	minimum = 0.044 (at node 3)
	maximum = 0.062 (at node 0)
Injected flit rate average = 0.0502778
	minimum = 0.047 (at node 2)
	maximum = 0.058 (at node 1)
Accepted flit rate average= 0.0506667
	minimum = 0.044 (at node 3)
	maximum = 0.062 (at node 0)
Injected packet length average = 1
Accepted packet length average = 1
Total in-flight flits = 5 (0 measured)
Buffer busy stall rate = 0
Buffer conflict stall rate = 0.001
Buffer full stall rate = 0
Buffer reserved stall rate = 0
Crossbar conflict stall rate = 0.000555556
latency change    = 0.0047194
throughput change = 0.0350877
Class 0:
Packet latency average = 15.6856
	minimum = 7
	maximum = 28
Network latency average = 15.6856
	minimum = 7
	maximum = 28
Slowest packet = 31497
Flit latency average = 15.6856
	minimum = 7
	maximum = 28
Slowest flit = 31497
Fragmentation average = 0
	minimum = 0
	maximum = 0
Injected packet rate average = 0.0493333
	minimum = 0.04 (at node 4)
	maximum = 0.075 (at node 5)
Accepted packet rate average = 0.0487778
	minimum = 0.043 (at node 1)
	maximum = 0.054 (at node 5)
Injected flit rate average = 0.0493333
	minimum = 0.04 (at node 4)
	maximum = 0.075 (at node 5)
Accepted flit rate average= 0.0487778
	minimum = 0.043 (at node 1)
	maximum = 0.054 (at node 5)
Injected packet length average = 1
Accepted packet length average = 1
Total in-flight flits = 10 (0 measured)
Buffer busy stall rate = 0
Buffer conflict stall rate = 0.001
Buffer full stall rate = 0
Buffer reserved stall rate = 0
Crossbar conflict stall rate = 0.000222222
latency change    = 0.0137493
throughput change = 0.0387244
Class 0:
Packet latency average = 15.7053
	minimum = 7
	maximum = 28
Network latency average = 15.7053
	minimum = 7
	maximum = 28
Slowest packet = 31497
Flit latency average = 15.7053
	minimum = 7
	maximum = 28
Slowest flit = 31497
Fragmentation average = 0
	minimum = 0
	maximum = 0
Injected packet rate average = 0.0498333
	minimum = 0.042 (at node 4)
	maximum = 0.065 (at node 5)
Accepted packet rate average = 0.0493889
	minimum = 0.0405 (at node 2)
	maximum = 0.0545 (at node 7)
Injected flit rate average = 0.0498333
	minimum = 0.042 (at node 4)
	maximum = 0.065 (at node 5)
Accepted flit rate average= 0.0493889
	minimum = 0.0405 (at node 2)
	maximum = 0.0545 (at node 7)
Injected packet length average = 1
Accepted packet length average = 1
Total in-flight flits = 13 (0 measured)
Buffer busy stall rate = 0
Buffer conflict stall rate = 0.000833333
Buffer full stall rate = 0
Buffer reserved stall rate = 0
Crossbar conflict stall rate = 0.000111111
latency change    = 0.00125038
throughput change = 0.0123735
Class 0:
Packet latency average = 16.1152
	minimum = 7
	maximum = 28
Network latency average = 16.1152
	minimum = 7
	maximum = 28
Slowest packet = 32764
Flit latency average = 16.1152
	minimum = 7
	maximum = 28
Slowest flit = 32764
Fragmentation average = 0
	minimum = 0
	maximum = 0
Injected packet rate average = 0.0498889
	minimum = 0.038 (at node 5)
	maximum = 0.064 (at node 1)
Accepted packet rate average = 0.0511111
	minimum = 0.033 (at node 5)
	maximum = 0.063 (at node 3)
Injected flit rate average = 0.0498889
	minimum = 0.038 (at node 5)
	maximum = 0.064 (at node 1)
Accepted flit rate average= 0.0511111
	minimum = 0.033 (at node 5)
	maximum = 0.063 (at node 3)
Injected packet length average = 1
Accepted packet length average = 1
Total in-flight flits = 2 (0 measured)
Buffer busy stall rate = 0
Buffer conflict stall rate = 0.000333333
Buffer full stall rate = 0
Buffer reserved stall rate = 0
Crossbar conflict stall rate = 0.000333333
latency change    = 0.0254375
throughput change = 0.0336957
Class 0:
Packet latency average = 16.0341
	minimum = 7
	maximum = 28
Network latency average = 16.0341
	minimum = 7
	maximum = 28
Slowest packet = 32764
Flit latency average = 16.0341
	minimum = 7
	maximum = 28
Slowest flit = 32764
Fragmentation average = 0
	minimum = 0
	maximum = 0
Injected packet rate average = 0.0501111
	minimum = 0.045 (at node 8)
	maximum = 0.0575 (at node 4)
Accepted packet rate average = 0.0505
	minimum = 0.036 (at node 5)
	maximum = 0.0575 (at node 2)
Injected flit rate average = 0.0501111
	minimum = 0.045 (at node 8)
	maximum = 0.0575 (at node 4)
Accepted flit rate average= 0.0505
	minimum = 0.036 (at node 5)
	maximum = 0.0575 (at node 2)
Injected packet length average = 1
Accepted packet length average = 1
Total in-flight flits = 6 (0 measured)
Buffer busy stall rate = 0
Buffer conflict stall rate = 0.000611111
Buffer full stall rate = 0
Buffer reserved stall rate = 0
Crossbar conflict stall rate = 0.000333333
latency change    = 0.00505884
throughput change = 0.0121012
Class 0:
Packet latency average = 15.9309
	minimum = 7
	maximum = 28
Network latency average = 15.9309
	minimum = 7
	maximum = 28
Slowest packet = 33294
Flit latency average = 15.9309
	minimum = 7
	maximum = 28
Slowest flit = 33294
Fragmentation average = 0
	minimum = 0
	maximum = 0
Injected packet rate average = 0.0488889
	minimum = 0.042 (at node 0)
	maximum = 0.056 (at node 3)
Accepted packet rate average = 0.0482222
	minimum = 0.037 (at node 3)
	maximum = 0.063 (at node 5)
Injected flit rate average = 0.0488889
	minimum = 0.042 (at node 0)
	maximum = 0.056 (at node 3)
Accepted flit rate average= 0.0482222
	minimum = 0.037 (at node 3)
	maximum = 0.063 (at node 5)
Injected packet length average = 1
Accepted packet length average = 1
Total in-flight flits = 12 (0 measured)
Buffer busy stall rate = 0
Buffer conflict stall rate = 0.000888889
Buffer full stall rate = 0
Buffer reserved stall rate = 0
Crossbar conflict stall rate = 0.000222222
latency change    = 0.00647973
throughput change = 0.047235
Class 0:
Packet latency average = 15.9736
	minimum = 7
	maximum = 28
Network latency average = 15.9736
	minimum = 7
	maximum = 28
Slowest packet = 33294
Flit latency average = 15.9736
	minimum = 7
	maximum = 28
Slowest flit = 33294
Fragmentation average = 0
	minimum = 0
	maximum = 0
Injected packet rate average = 0.0503889
	minimum = 0.0425 (at node 0)
	maximum = 0.054 (at node 8)
Accepted packet rate average = 0.0504444
	minimum = 0.041 (at node 6)
	maximum = 0.0555 (at node 2)
Injected flit rate average = 0.0503889
	minimum = 0.0425 (at node 0)
	maximum = 0.054 (at node 8)
Accepted flit rate average= 0.0504444
	minimum = 0.041 (at node 6)
	maximum = 0.0555 (at node 2)
Injected packet length average = 1
Accepted packet length average = 1
Total in-flight flits = 5 (0 measured)
Buffer busy stall rate = 0
Buffer conflict stall rate = 0.001
Buffer full stall rate = 0
Buffer reserved stall rate = 0
Crossbar conflict stall rate = 0.000444444
latency change    = 0.00267271
throughput change = 0.0440529
Class 0:
Packet latency average = 16.1419
	minimum = 7
	maximum = 28
Network latency average = 16.1419
	minimum = 7
	maximum = 28
Slowest packet = 34646
Flit latency average = 16.1419
	minimum = 7
	maximum = 28
Slowest flit = 34646
Fragmentation average = 0
	minimum = 0
	maximum = 0
Injected packet rate average = 0.0528889
	minimum = 0.046 (at node 0)
	maximum = 0.06 (at node 4)
Accepted packet rate average = 0.0524444
	minimum = 0.041 (at node 1)
	maximum = 0.067 (at node 2)
Injected flit rate average = 0.0528889
	minimum = 0.046 (at node 0)
	maximum = 0.06 (at node 4)
Accepted flit rate average= 0.0524444
	minimum = 0.041 (at node 1)
	maximum = 0.067 (at node 2)
Injected packet length average = 1
Accepted packet length average = 1
Total in-flight flits = 9 (0 measured)
Buffer busy stall rate = 0
Buffer conflict stall rate = 0.00122222
Buffer full stall rate = 0
Buffer reserved stall rate = 0
Crossbar conflict stall rate = 0.000555556
latency change    = 0.0104313
throughput change = 0.0381356
Class 0:
Packet latency average = 16.1874
	minimum = 7
	maximum = 28
Network latency average = 16.1874
	minimum = 7
	maximum = 28
Slowest packet = 34646
Flit latency average = 16.1874
	minimum = 7
	maximum = 28
Slowest flit = 34646
Fragmentation average = 0
	minimum = 0
	maximum = 0
Injected packet rate average = 0.0515556
	minimum = 0.045 (at node 5)
	maximum = 0.0575 (at node 7)
Accepted packet rate average = 0.0512778
	minimum = 0.0415 (at node 4)
	maximum = 0.064 (at node 2)
Injected flit rate average = 0.0515556
	minimum = 0.045 (at node 5)
	maximum = 0.0575 (at node 7)
Accepted flit rate average= 0.0512778
	minimum = 0.0415 (at node 4)
	maximum = 0.064 (at node 2)
Injected packet length average = 1
Accepted packet length average = 1
Total in-flight flits = 10 (0 measured)
Buffer busy stall rate = 5.55556e-05
Buffer conflict stall rate = 0.00138889
Buffer full stall rate = 0
Buffer reserved stall rate = 0
Crossbar conflict stall rate = 0.0005
latency change    = 0.00280978
throughput change = 0.0227519
Class 0:
Packet latency average = 16.0656
	minimum = 7
	maximum = 28
Network latency average = 16.0656
	minimum = 7
	maximum = 28
Slowest packet = 35310
Flit latency average = 16.0656
	minimum = 7
	maximum = 28
Slowest flit = 35310
Fragmentation average = 0
	minimum = 0
	maximum = 0
Injected packet rate average = 0.0508889
	minimum = 0.042 (at node 6)
	maximum = 0.067 (at node 1)
Accepted packet rate average = 0.0507778
	minimum = 0.038 (at node 6)
	maximum = 0.067 (at node 5)
Injected flit rate average = 0.0508889
	minimum = 0.042 (at node 6)
	maximum = 0.067 (at node 1)
Accepted flit rate average= 0.0507778
	minimum = 0.038 (at node 6)
	maximum = 0.067 (at node 5)
Injected packet length average = 1
Accepted packet length average = 1
[...]
Buffer busy stall rate = 0
Buffer conflict stall rate = 0.000666667
Buffer full stall rate = 0
Buffer reserved stall rate = 0
Crossbar conflict stall rate = 0.000444444
latency change    = 0.01258
throughput change = 0.0569007
Class 0:
Packet latency average = 16.1328
	minimum = 7
	maximum = 28
Network latency average = 16.1328
	minimum = 7
	maximum = 28
Slowest packet = 442571
Flit latency average = 16.1328
	minimum = 7
	maximum = 28
Slowest flit = 442571
Fragmentation average = 0
	minimum = 0
	maximum = 0
Injected packet rate average = 0.0480556
	minimum = 0.041 (at node 4)
	maximum = 0.055 (at node 7)
Accepted packet rate average = 0.0481111
	minimum = 0.0425 (at node 6)
	maximum = 0.0555 (at node 2)
Injected flit rate average = 0.0480556
	minimum = 0.041 (at node 4)
	maximum = 0.055 (at node 7)
Accepted flit rate average= 0.0481111
	minimum = 0.0425 (at node 6)
	maximum = 0.0555 (at node 2)
Injected packet length average = 1
Accepted packet length average = 1
Total in-flight flits = 7 (0 measured)
Buffer busy stall rate = 0
Buffer conflict stall rate = 0.000777778
Buffer full stall rate = 0
Buffer reserved stall rate = 0
Crossbar conflict stall rate = 0.000444444
latency change    = 0.000623741
throughput change = 0.0461894
Class 0:
Packet latency average = 16.0417
	minimum = 7
	maximum = 28
Network latency average = 16.0417
	minimum = 7
	maximum = 28
Slowest packet = 443543
Flit latency average = 16.0417
	minimum = 7
	maximum = 28
Slowest flit = 443543
Fragmentation average = 0
	minimum = 0
	maximum = 0
Injected packet rate average = 0.0528889
	minimum = 0.046 (at node 3)
	maximum = 0.062 (at node 6)
Accepted packet rate average = 0.0533333
	minimum = 0.045 (at node 4)
	maximum = 0.06 (at node 8)
Injected flit rate average = 0.0528889
	minimum = 0.046 (at node 3)
	maximum = 0.062 (at node 6)
Accepted flit rate average= 0.0533333
	minimum = 0.045 (at node 4)
	maximum = 0.06 (at node 8)
Injected packet length average = 1
Accepted packet length average = 1
Total in-flight flits = 3 (0 measured)
Buffer busy stall rate = 0
Buffer conflict stall rate = 0.00133333
Buffer full stall rate = 0
Buffer reserved stall rate = 0
Crossbar conflict stall rate = 0.000777778
latency change    = 0.00568069
throughput change = 0.0979167
Class 0:
Packet latency average = 16.0267
	minimum = 7
	maximum = 29
Network latency average = 16.0267
	minimum = 7
	maximum = 29
Slowest packet = 444170
Flit latency average = 16.0267
	minimum = 7
	maximum = 29
Slowest flit = 444170
Fragmentation average = 0
	minimum = 0
	maximum = 0
Injected packet rate average = 0.0522222
	minimum = 0.046 (at node 1)
	maximum = 0.0625 (at node 6)
Accepted packet rate average = 0.0521111
	minimum = 0.045 (at node 4)
	maximum = 0.057 (at node 3)
Injected flit rate average = 0.0522222
	minimum = 0.046 (at node 1)
	maximum = 0.0625 (at node 6)
Accepted flit rate average= 0.0521111
	minimum = 0.045 (at node 4)
	maximum = 0.057 (at node 3)
Injected packet length average = 1
Accepted packet length average = 1
Total in-flight flits = 9 (0 measured)
Buffer busy stall rate = 0
Buffer conflict stall rate = 0.001
Buffer full stall rate = 0
Buffer reserved stall rate = 0
Crossbar conflict stall rate = 0.000611111
latency change    = 0.000936828
throughput change = 0.0234542
Class 0:
Packet latency average = 15.9979
	minimum = 7
	maximum = 28
Network latency average = 15.9979
	minimum = 7
	maximum = 28
Slowest packet = 444688
Flit latency average = 15.9979
	minimum = 7
	maximum = 28
Slowest flit = 444688
Fragmentation average = 0
	minimum = 0
	maximum = 0
Injected packet rate average = 0.0525556
	minimum = 0.046 (at node 7)
	maximum = 0.063 (at node 2)
Accepted packet rate average = 0.0523333
	minimum = 0.047 (at node 8)
	maximum = 0.067 (at node 1)
Injected flit rate average = 0.0525556
	minimum = 0.046 (at node 7)
	maximum = 0.063 (at node 2)
Accepted flit rate average= 0.0523333
	minimum = 0.047 (at node 8)
	maximum = 0.067 (at node 1)
Injected packet length average = 1
Accepted packet length average = 1
Total in-flight flits = 11 (0 measured)
Buffer busy stall rate = 0
Buffer conflict stall rate = 0.000777778
Buffer full stall rate = 0
Buffer reserved stall rate = 0
Crossbar conflict stall rate = 0.000222222
latency change    = 0.00179871
throughput change = 0.00424628
Class 0:
Packet latency average = 15.9653
	minimum = 7
	maximum = 28
Network latency average = 15.9653
	minimum = 7
	maximum = 28
Slowest packet = 444688
Flit latency average = 15.9653
	minimum = 7
	maximum = 28
Slowest flit = 444688
Fragmentation average = 0
	minimum = 0
	maximum = 0
Injected packet rate average = 0.0510556
	minimum = 0.044 (at node 1)
	maximum = 0.0555 (at node 7)
Accepted packet rate average = 0.0512778
	minimum = 0.0445 (at node 6)
	maximum = 0.06 (at node 1)
Injected flit rate average = 0.0510556
	minimum = 0.044 (at node 1)
	maximum = 0.0555 (at node 7)
Accepted flit rate average= 0.0512778
	minimum = 0.0445 (at node 6)
	maximum = 0.06 (at node 1)
Injected packet length average = 1
Accepted packet length average = 1
Total in-flight flits = 5 (0 measured)
Buffer busy stall rate = 5.55556e-05
Buffer conflict stall rate = 0.000944444
Buffer full stall rate = 0
Buffer reserved stall rate = 0
Crossbar conflict stall rate = 0.000444444
latency change    = 0.00203857
throughput change = 0.020585
Class 0:
Packet latency average = 15.5194
	minimum = 7
	maximum = 27
Network latency average = 15.5194
	minimum = 7
	maximum = 27
Slowest packet = 445286
Flit latency average = 15.5194
	minimum = 7
	maximum = 27
Slowest flit = 445286
Fragmentation average = 0
	minimum = 0
	maximum = 0
Injected packet rate average = 0.0518889
	minimum = 0.036 (at node 6)
	maximum = 0.069 (at node 0)
Accepted packet rate average = 0.0515556
	minimum = 0.042 (at node 3)
	maximum = 0.061 (at node 1)
Injected flit rate average = 0.0518889
	minimum = 0.036 (at node 6)
	maximum = 0.069 (at node 0)
Accepted flit rate average= 0.0515556
	minimum = 0.042 (at node 3)
	maximum = 0.061 (at node 1)
Injected packet length average = 1
Accepted packet length average = 1
Total in-flight flits = 8 (0 measured)
Buffer busy stall rate = 0
Buffer conflict stall rate = 0.000888889
Buffer full stall rate = 0
Buffer reserved stall rate = 0
Crossbar conflict stall rate = 0.001
latency change    = 0.028734
throughput change = 0.00538793
Class 0:
Packet latency average = 15.9791
	minimum = 7
	maximum = 28
Network latency average = 15.9791
	minimum = 7
	maximum = 28
Slowest packet = 445758
Flit latency average = 15.9791
	minimum = 7
	maximum = 28
Slowest flit = 445758
Fragmentation average = 0
	minimum = 0
	maximum = 0
Injected packet rate average = 0.0508333
	minimum = 0.044 (at node 5)
	maximum = 0.056 (at node 1)
Accepted packet rate average = 0.0506111
	minimum = 0.046 (at node 8)
	maximum = 0.0575 (at node 6)
Injected flit rate average = 0.0508333
	minimum = 0.044 (at node 5)
	maximum = 0.056 (at node 1)
Accepted flit rate average= 0.0506111
	minimum = 0.046 (at node 8)
	maximum = 0.0575 (at node 6)
Injected packet length average = 1
Accepted packet length average = 1
Total in-flight flits = 9 (0 measured)
Buffer busy stall rate = 0
Buffer conflict stall rate = 0.00122222
Buffer full stall rate = 0
Buffer reserved stall rate = 0
Crossbar conflict stall rate = 0.000722222
latency change    = 0.0287717
throughput change = 0.0186608
Class 0:
Packet latency average = 16.0907
	minimum = 7
	maximum = 28
Network latency average = 16.0907
	minimum = 7
	maximum = 28
Slowest packet = 446238
Flit latency average = 16.0907
	minimum = 7
	maximum = 28
Slowest flit = 446238
Fragmentation average = 0
	minimum = 0
	maximum = 0
Injected packet rate average = 0.0462222
	minimum = 0.041 (at node 5)
	maximum = 0.052 (at node 3)
Accepted packet rate average = 0.0465556
	minimum = 0.041 (at node 4)
	maximum = 0.052 (at node 1)
Injected flit rate average = 0.0462222
	minimum = 0.041 (at node 5)
	maximum = 0.052 (at node 3)
Accepted flit rate average= 0.0465556
	minimum = 0.041 (at node 4)
	maximum = 0.052 (at node 1)
Injected packet length average = 1
Accepted packet length average = 1
Total in-flight flits = 6 (0 measured)
Buffer busy stall rate = 0
Buffer conflict stall rate = 0.000666667
Buffer full stall rate = 0
Buffer reserved stall rate = 0
Crossbar conflict stall rate = 0.000111111
latency change    = 0.00693248
throughput change = 0.0871122
Class 0:
Packet latency average = 15.9681
	minimum = 7
	maximum = 28
Network latency average = 15.9681
	minimum = 7
	maximum = 28
Slowest packet = 446238
Flit latency average = 15.9681
	minimum = 7
	maximum = 28
Slowest flit = 446238
Fragmentation average = 0
	minimum = 0
	maximum = 0
Injected packet rate average = 0.0487222
	minimum = 0.0445 (at node 4)
	maximum = 0.0525 (at node 3)
Accepted packet rate average = 0.0487778
	minimum = 0.044 (at node 4)
	maximum = 0.0575 (at node 3)
Injected flit rate average = 0.0487222
	minimum = 0.0445 (at node 4)
	maximum = 0.0525 (at node 3)
Accepted flit rate average= 0.0487778
	minimum = 0.044 (at node 4)
	maximum = 0.0575 (at node 3)
Injected packet length average = 1
Accepted packet length average = 1
Total in-flight flits = 8 (0 measured)
Buffer busy stall rate = 0
Buffer conflict stall rate = 0.00105556
Buffer full stall rate = 0
Buffer reserved stall rate = 0
Crossbar conflict stall rate = 0.000611111
latency change    = 0.00767673
throughput change = 0.0455581
Class 0:
Packet latency average = 15.3902
	minimum = 7
	maximum = 29
Network latency average = 15.3902
	minimum = 7
	maximum = 29
Slowest packet = 447070
Flit latency average = 15.3902
	minimum = 7
	maximum = 29
Slowest flit = 447070
Fragmentation average = 0
	minimum = 0
	maximum = 0
Injected packet rate average = 0.0478889
	minimum = 0.035 (at node 2)
	maximum = 0.067 (at node 5)
Accepted packet rate average = 0.0475556
	minimum = 0.035 (at node 6)
	maximum = 0.06 (at node 3)
Injected flit rate average = 0.0478889
	minimum = 0.035 (at node 2)
	maximum = 0.067 (at node 5)
Accepted flit rate average= 0.0475556
	minimum = 0.035 (at node 6)
	maximum = 0.06 (at node 3)
Injected packet length average = 1
Accepted packet length average = 1
Total in-flight flits = 11 (0 measured)
Buffer busy stall rate = 0
Buffer conflict stall rate = 0.001
Buffer full stall rate = 0
Buffer reserved stall rate = 0
Crossbar conflict stall rate = 0.000555556
latency change    = 0.0375514
throughput change = 0.0257009
Class 0:
Packet latency average = 15.5888
	minimum = 7
	maximum = 29
Network latency average = 15.5888
	minimum = 7
	maximum = 29
Slowest packet = 447070
Flit latency average = 15.5888
	minimum = 7
	maximum = 29
Slowest flit = 447070
Fragmentation average = 0
	minimum = 0
	maximum = 0
Injected packet rate average = 0.0488333
	minimum = 0.041 (at node 6)
	maximum = 0.0545 (at node 0)
Accepted packet rate average = 0.0487778
	minimum = 0.038 (at node 2)
	maximum = 0.058 (at node 4)
Injected flit rate average = 0.0488333
	minimum = 0.041 (at node 6)
	maximum = 0.0545 (at node 0)
Accepted flit rate average= 0.0487778
	minimum = 0.038 (at node 2)
	maximum = 0.058 (at node 4)
Injected packet length average = 1
Accepted packet length average = 1
Total in-flight flits = 9 (0 measured)
Buffer busy stall rate = 5.55556e-05
Buffer conflict stall rate = 0.00111111
Buffer full stall rate = 0
Buffer reserved stall rate = 0
Crossbar conflict stall rate = 0.000388889
latency change    = 0.0127432
throughput change = 0.0250569
Class 0:
Packet latency average = 16
	minimum = 7
	maximum = 28
Network latency average = 16
	minimum = 7
	maximum = 28
Slowest packet = 448021
Flit latency average = 16
	minimum = 7
	maximum = 28
Slowest flit = 448021
Fragmentation average = 0
	minimum = 0
	maximum = 0
Injected packet rate average = 0.0482222
	minimum = 0.039 (at node 2)
	maximum = 0.055 (at node 5)
Accepted packet rate average = 0.0483333
	minimum = 0.044 (at node 8)
	maximum = 0.054 (at node 3)
Injected flit rate average = 0.0482222
	minimum = 0.039 (at node 2)
	maximum = 0.055 (at node 5)
Accepted flit rate average= 0.0483333
	minimum = 0.044 (at node 8)
	maximum = 0.054 (at node 3)
Injected packet length average = 1
Accepted packet length average = 1
Total in-flight flits = 8 (0 measured)
Buffer busy stall rate = 0
Buffer conflict stall rate = 0.000666667
Buffer full stall rate = 0
Buffer reserved stall rate = 0
Crossbar conflict stall rate = 0.000333333
latency change    = 0.0256976
throughput change = 0.0091954
Class 0:
Packet latency average = 16.0641
	minimum = 7
	maximum = 29
Network latency average = 16.0641
	minimum = 7
	maximum = 29
Slowest packet = 448785
Flit latency average = 16.0641
	minimum = 7
	maximum = 29
Slowest flit = 448785
Fragmentation average = 0
	minimum = 0
	maximum = 0
Injected packet rate average = 0.0477222
	minimum = 0.045 (at node 2)
	maximum = 0.052 (at node 5)
Accepted packet rate average = 0.0476667
	minimum = 0.043 (at node 7)
	maximum = 0.0545 (at node 3)
Injected flit rate average = 0.0477222
	minimum = 0.045 (at node 2)
	maximum = 0.052 (at node 5)
Accepted flit rate average= 0.0476667
	minimum = 0.043 (at node 7)
	maximum = 0.0545 (at node 3)
Injected packet length average = 1
Accepted packet length average = 1
Total in-flight flits = 10 (0 measured)
Buffer busy stall rate = 0.000111111
Buffer conflict stall rate = 0.000888889
Buffer full stall rate = 0
Buffer reserved stall rate = 0
Crossbar conflict stall rate = 0.000388889
latency change    = 0.00399042
throughput change = 0.013986
Class 0:
Packet latency average = 15.9093
	minimum = 7
	maximum = 28
Network latency average = 15.9093
	minimum = 7
	maximum = 28
Slowest packet = 449144
Flit latency average = 15.9093
	minimum = 7
	maximum = 28
Slowest flit = 449144
Fragmentation average = 0
	minimum = 0
	maximum = 0
Injected packet rate average = 0.0452222
	minimum = 0.036 (at node 0)
	maximum = 0.067 (at node 1)
Accepted packet rate average = 0.0453333
	minimum = 0.037 (at node 2)
	maximum = 0.056 (at node 4)
Injected flit rate average = 0.0452222
	minimum = 0.036 (at node 0)
	maximum = 0.067 (at node 1)
Accepted flit rate average= 0.0453333
	minimum = 0.037 (at node 2)
	maximum = 0.056 (at node 4)
Injected packet length average = 1
Accepted packet length average = 1
Total in-flight flits = 9 (0 measured)
Buffer busy stall rate = 0
Buffer conflict stall rate = 0.001
Buffer full stall rate = 0
Buffer reserved stall rate = 0
Crossbar conflict stall rate = 0.000333333
latency change    = 0.00972945
throughput change = 0.0514706
Class 0:
Packet latency average = 16.0633
	minimum = 7
	maximum = 28
Network latency average = 16.0633
	minimum = 7
	maximum = 28
Slowest packet = 449144
Flit latency average = 16.0633
	minimum = 7
	maximum = 28
Slowest flit = 449144
Fragmentation average = 0
	minimum = 0
	maximum = 0
Injected packet rate average = 0.0501111
	minimum = 0.04 (at node 0)
	maximum = 0.0615 (at node 1)
Accepted packet rate average = 0.0500556
	minimum = 0.0445 (at node 1)
	maximum = 0.056 (at node 4)
Injected flit rate average = 0.0501111
	minimum = 0.04 (at node 0)
	maximum = 0.0615 (at node 1)
Accepted flit rate average= 0.0500556
	minimum = 0.0445 (at node 1)
	maximum = 0.056 (at node 4)
Injected packet length average = 1
Accepted packet length average = 1
Total in-flight flits = 11 (0 measured)
Buffer busy stall rate = 0
Buffer conflict stall rate = 0.00105556
Buffer full stall rate = 0
Buffer reserved stall rate = 0
Crossbar conflict stall rate = 0.000388889
latency change    = 0.00958394
throughput change = 0.0943396
Warmed up ...Time used is 1000000 cycles
Class 0:
Packet latency average = 15.9375
	minimum = 7
	maximum = 28
Network latency average = 15.9375
	minimum = 7
	maximum = 28
Slowest packet = 449895
Flit latency average = 15.9978
	minimum = 7
	maximum = 28
Slowest flit = 449895
Fragmentation average = 0
	minimum = 0
	maximum = 0
Injected packet rate average = 0.0505556
	minimum = 0.039 (at node 7)
	maximum = 0.06 (at node 2)
Accepted packet rate average = 0.051
	minimum = 0.041 (at node 5)
	maximum = 0.065 (at node 4)
Injected flit rate average = 0.0505556
	minimum = 0.039 (at node 7)
	maximum = 0.06 (at node 2)
Accepted flit rate average= 0.051
	minimum = 0.041 (at node 5)
	maximum = 0.065 (at node 4)
Injected packet length average = 1
Accepted packet length average = 1
Total in-flight flits = 7 (7 measured)
Buffer busy stall rate = 0.000111111
Buffer conflict stall rate = 0.00166667
Buffer full stall rate = 0
Buffer reserved stall rate = 0
Crossbar conflict stall rate = 0.000333333
latency change    = 0.00789101
throughput change = 0.0185185
Class 0:
Packet latency average = 15.9303
	minimum = 7
	maximum = 28
Network latency average = 15.9303
	minimum = 7
	maximum = 28
Slowest packet = 449895
Flit latency average = 15.9616
	minimum = 7
	maximum = 28
Slowest flit = 449895
Fragmentation average = 0
	minimum = 0
	maximum = 0
Injected packet rate average = 0.0490556
	minimum = 0.043 (at node 6)
	maximum = 0.054 (at node 8)
Accepted packet rate average = 0.0492222
	minimum = 0.043 (at node 0)
	maximum = 0.059 (at node 4)
Injected flit rate average = 0.0490556
	minimum = 0.043 (at node 6)
	maximum = 0.054 (at node 8)
Accepted flit rate average= 0.0492222
	minimum = 0.043 (at node 0)
	maximum = 0.059 (at node 4)
Injected packet length average = 1
Accepted packet length average = 1
Total in-flight flits = 8 (8 measured)
Buffer busy stall rate = 5.55556e-05
Buffer conflict stall rate = 0.00133333
Buffer full stall rate = 0
Buffer reserved stall rate = 0
Crossbar conflict stall rate = 0.000611111
latency change    = 0.000452866
throughput change = 0.0361174
Class 0:
Packet latency average = 15.9292
	minimum = 7
	maximum = 28
Network latency average = 15.9292
	minimum = 7
	maximum = 28
Slowest packet = 449895
Flit latency average = 15.9493
	minimum = 7
	maximum = 28
Slowest flit = 449895
Fragmentation average = 0
	minimum = 0
	maximum = 0
Injected packet rate average = 0.0511481
	minimum = 0.043 (at node 6)
	maximum = 0.0563333 (at node 8)
Accepted packet rate average = 0.0511852
	minimum = 0.0446667 (at node 1)
	maximum = 0.0573333 (at node 4)
Injected flit rate average = 0.0511481
	minimum = 0.043 (at node 6)
	maximum = 0.0563333 (at node 8)
Accepted flit rate average= 0.0511852
	minimum = 0.0446667 (at node 1)
	maximum = 0.0573333 (at node 4)
Injected packet length average = 1
Accepted packet length average = 1
Total in-flight flits = 10 (10 measured)
Buffer busy stall rate = 3.7037e-05
Buffer conflict stall rate = 0.00148148
Buffer full stall rate = 0
Buffer reserved stall rate = 0
Crossbar conflict stall rate = 0.000481481
latency change    = 6.50998e-05
throughput change = 0.0383502
Draining all recorded packets ...
Draining remaining packets ...
Time taken is 1003041 cycles
====== Overall Traffic Statistics ======
====== Traffic class 0 ======
Packet latency average = 15.9623 (1 samples)
	minimum = 7 (1 samples)
	maximum = 28 (1 samples)
Network latency average = 15.9623 (1 samples)
	minimum = 7 (1 samples)
	maximum = 28 (1 samples)
Flit latency average = 15.978 (1 samples)
	minimum = 7 (1 samples)
	maximum = 28 (1 samples)
Fragmentation average = 0 (1 samples)
	minimum = 0 (1 samples)
	maximum = 0 (1 samples)
Injected packet rate average = 0.0511481 (1 samples)
	minimum = 0.043 (1 samples)
	maximum = 0.0563333 (1 samples)
Accepted packet rate average = 0.0511852 (1 samples)
	minimum = 0.0446667 (1 samples)
	maximum = 0.0573333 (1 samples)
Injected flit rate average = 0.0511481 (1 samples)
	minimum = 0.043 (1 samples)
	maximum = 0.0563333 (1 samples)
Accepted flit rate average = 0.0511852 (1 samples)
	minimum = 0.0446667 (1 samples)
	maximum = 0.0573333 (1 samples)
Injected packet size average = 1 (1 samples)
Accepted packet size average = 1 (1 samples)
Hops average = 2.77697 (1 samples)
Buffer busy stall rate = 3.7037e-05 (1 samples)
Buffer conflict stall rate = 0.00148148 (1 samples)
Buffer full stall rate = 0 (1 samples)
Buffer reserved stall rate = 0 (1 samples)
Crossbar conflict stall rate = 0.000481481 (1 samples)
Total run time 23.2959
