BEGIN Configuration File: ../booksim/src/examples/my_mesh_config
// Topology
topology = mesh;
k = 8;
n = 2;

// Routing
routing_function = dim_order;

// Flow Control
num_vcs = 8;
vc_buf_size = 8;
wait_for_tail_credit = 1;

// Traffic
traffic = uniform;
injection_rate = 0.01;

// Simulation
sim_type = latency;
warmup_periods = 3;
max_samples = 20000;
latency_thres = 500.0;
sim_count = 1;

END Configuration File: ../booksim/src/examples/my_mesh_config
Class 0:
Packet latency average = 32.1455
	minimum = 7
	maximum = 72
Network latency average = 32.1455
	minimum = 7
	maximum = 72
Slowest packet = 231
Flit latency average = 32.1455
	minimum = 7
	maximum = 72
Slowest flit = 231
Fragmentation average = 0
	minimum = 0
	maximum = 0
Injected packet rate average = 0.00960937
	minimum = 0.003 (at node 21)
	maximum = 0.015 (at node 18)
Accepted packet rate average = 0.00934375
	minimum = 0.004 (at node 37)
	maximum = 0.017 (at node 12)
Injected flit rate average = 0.00960937
	minimum = 0.003 (at node 21)
	maximum = 0.015 (at node 18)
Accepted flit rate average= 0.00934375
	minimum = 0.004 (at node 37)
	maximum = 0.017 (at node 12)
Injected packet length average = 1
Accepted packet length average = 1
Total in-flight flits = 17 (0 measured)
Buffer busy stall rate = 0
Buffer conflict stall rate = 1.5625e-05
Buffer full stall rate = 0
Buffer reserved stall rate = 0
Crossbar conflict stall rate = 9.375e-05
latency change    = 1
throughput change = 1
Class 0:
Packet latency average = 33.0481
	minimum = 7
	maximum = 72
Network latency average = 33.0481
	minimum = 7
	maximum = 72
Slowest packet = 231
Flit latency average = 33.0481
	minimum = 7
	maximum = 72
Slowest flit = 231
Fragmentation average = 0
	minimum = 0
	maximum = 0
Injected packet rate average = 0.00977344
	minimum = 0.0045 (at node 55)
	maximum = 0.015 (at node 42)
Accepted packet rate average = 0.00957812
	minimum = 0.005 (at node 43)
	maximum = 0.014 (at node 12)
Injected flit rate average = 0.00977344
	minimum = 0.0045 (at node 55)
	maximum = 0.015 (at node 42)
Accepted flit rate average= 0.00957812
	minimum = 0.005 (at node 43)
	maximum = 0.014 (at node 12)
Injected packet length average = 1
Accepted packet length average = 1
Total in-flight flits = 25 (0 measured)
Buffer busy stall rate = 0
Buffer conflict stall rate = 1.5625e-05
Buffer full stall rate = 0
Buffer reserved stall rate = 0
Crossbar conflict stall rate = 0.000140625
latency change    = 0.0273129
throughput change = 0.0244698
Class 0:
Packet latency average = 33.7339
	minimum = 7
	maximum = 77
Network latency average = 33.7339
	minimum = 7
	maximum = 77
Slowest packet = 1753
Flit latency average = 33.7339
	minimum = 7
	maximum = 77
Slowest flit = 1753
Fragmentation average = 0
	minimum = 0
	maximum = 0
Injected packet rate average = 0.0103281
	minimum = 0.003 (at node 22)
	maximum = 0.022 (at node 1)
Accepted packet rate average = 0.0104531
	minimum = 0.005 (at node 52)
	maximum = 0.018 (at node 40)
Injected flit rate average = 0.0103281
	minimum = 0.003 (at node 22)
	maximum = 0.022 (at node 1)
Accepted flit rate average= 0.0104531
	minimum = 0.005 (at node 52)
	maximum = 0.018 (at node 40)
Injected packet length average = 1
Accepted packet length average = 1
Total in-flight flits = 17 (0 measured)
Buffer busy stall rate = 0
Buffer conflict stall rate = 6.25e-05
Buffer full stall rate = 0
Buffer reserved stall rate = 0
Crossbar conflict stall rate = 0.000171875
latency change    = 0.0203299
throughput change = 0.083707
Warmed up ...Time used is 3000 cycles
Class 0:
Packet latency average = 32.7577
	minimum = 7
	maximum = 72
Network latency average = 32.7577
	minimum = 7
	maximum = 72
Slowest packet = 2114
Flit latency average = 32.8475
	minimum = 7
	maximum = 72
Slowest flit = 2114
Fragmentation average = 0
	minimum = 0
	maximum = 0
Injected packet rate average = 0.0100469
	minimum = 0.003 (at node 30)
	maximum = 0.017 (at node 23)
Accepted packet rate average = 0.0099375
	minimum = 0.004 (at node 17)
	maximum = 0.016 (at node 11)
Injected flit rate average = 0.0100469
	minimum = 0.003 (at node 30)
	maximum = 0.017 (at node 23)
Accepted flit rate average= 0.0099375
	minimum = 0.004 (at node 17)
	maximum = 0.016 (at node 11)
Injected packet length average = 1
Accepted packet length average = 1
Total in-flight flits = 24 (24 measured)
Buffer busy stall rate = 0
Buffer conflict stall rate = 0
Buffer full stall rate = 0
Buffer reserved stall rate = 0
Crossbar conflict stall rate = 0.000140625
latency change    = 0.0298024
throughput change = 0.0518868
Class 0:
Packet latency average = 32.8408
	minimum = 7
	maximum = 73
Network latency average = 32.8408
	minimum = 7
	maximum = 73
Slowest packet = 3057
Flit latency average = 32.8854
	minimum = 7
	maximum = 73
Slowest flit = 3057
Fragmentation average = 0
	minimum = 0
	maximum = 0
Injected packet rate average = 0.00976562
	minimum = 0.004 (at node 30)
	maximum = 0.016 (at node 43)
Accepted packet rate average = 0.00975
	minimum = 0.005 (at node 17)
	maximum = 0.0165 (at node 22)
Injected flit rate average = 0.00976562
	minimum = 0.004 (at node 30)
	maximum = 0.016 (at node 43)
Accepted flit rate average= 0.00975
	minimum = 0.005 (at node 17)
	maximum = 0.0165 (at node 22)
Injected packet length average = 1
Accepted packet length average = 1
Total in-flight flits = 19 (19 measured)
Buffer busy stall rate = 0
Buffer conflict stall rate = 7.8125e-06
Buffer full stall rate = 0
Buffer reserved stall rate = 0
Crossbar conflict stall rate = 0.000109375
latency change    = 0.00253058
throughput change = 0.0192308
Class 0:
Packet latency average = 32.9772
	minimum = 7
	maximum = 77
Network latency average = 32.9772
	minimum = 7
	maximum = 77
Slowest packet = 3311
Flit latency average = 33.0059
	minimum = 7
	maximum = 77
Slowest flit = 3311
Fragmentation average = 0
	minimum = 0
	maximum = 0
Injected packet rate average = 0.00970833
	minimum = 0.005 (at node 30)
	maximum = 0.0136667 (at node 37)
Accepted packet rate average = 0.00968229
	minimum = 0.00666667 (at node 10)
	maximum = 0.0146667 (at node 22)
Injected flit rate average = 0.00970833
	minimum = 0.005 (at node 30)
	maximum = 0.0136667 (at node 37)
Accepted flit rate average= 0.00968229
	minimum = 0.00666667 (at node 10)
	maximum = 0.0146667 (at node 22)
Injected packet length average = 1
Accepted packet length average = 1
Total in-flight flits = 22 (22 measured)
Buffer busy stall rate = 0
Buffer conflict stall rate = 5.20833e-06
Buffer full stall rate = 0
Buffer reserved stall rate = 0
Crossbar conflict stall rate = 0.000125
latency change    = 0.00413676
throughput change = 0.00699301
Class 0:
Packet latency average = 33.1493
	minimum = 7
	maximum = 77
Network latency average = 33.1493
	minimum = 7
	maximum = 77
Slowest packet = 3311
Flit latency average = 33.1695
	minimum = 7
	maximum = 77
Slowest flit = 3311
Fragmentation average = 0
	minimum = 0
	maximum = 0
Injected packet rate average = 0.00980078
	minimum = 0.0065 (at node 47)
	maximum = 0.0135 (at node 36)
Accepted packet rate average = 0.00977344
	minimum = 0.006 (at node 30)
	maximum = 0.01375 (at node 22)
Injected flit rate average = 0.00980078
	minimum = 0.0065 (at node 47)
	maximum = 0.0135 (at node 36)
Accepted flit rate average= 0.00977344
	minimum = 0.006 (at node 30)
	maximum = 0.01375 (at node 22)
Injected packet length average = 1
Accepted packet length average = 1
Total in-flight flits = 24 (24 measured)
Buffer busy stall rate = 0
Buffer conflict stall rate = 1.5625e-05
Buffer full stall rate = 0
Buffer reserved stall rate = 0
Crossbar conflict stall rate = 0.000132813
latency change    = 0.00519158
throughput change = 0.00932587
Draining all recorded packets ...
Draining remaining packets ...
Time taken is 7095 cycles
====== Overall Traffic Statistics ======
====== Traffic class 0 ======
Packet latency average = 33.1913 (1 samples)
	minimum = 7 (1 samples)
	maximum = 77 (1 samples)
Network latency average = 33.1913 (1 samples)
	minimum = 7 (1 samples)
	maximum = 77 (1 samples)
Flit latency average = 33.2227 (1 samples)
	minimum = 7 (1 samples)
	maximum = 77 (1 samples)
Fragmentation average = 0 (1 samples)
	minimum = 0 (1 samples)
	maximum = 0 (1 samples)
Injected packet rate average = 0.00980078 (1 samples)
	minimum = 0.0065 (1 samples)
	maximum = 0.0135 (1 samples)
Accepted packet rate average = 0.00977344 (1 samples)
	minimum = 0.006 (1 samples)
	maximum = 0.01375 (1 samples)
Injected flit rate average = 0.00980078 (1 samples)
	minimum = 0.0065 (1 samples)
	maximum = 0.0135 (1 samples)
Accepted flit rate average = 0.00977344 (1 samples)
	minimum = 0.006 (1 samples)
	maximum = 0.01375 (1 samples)
Injected packet size average = 1 (1 samples)
Accepted packet size average = 1 (1 samples)
Hops average = 6.23515 (1 samples)
Buffer busy stall rate = 0 (1 samples)
Buffer conflict stall rate = 1.5625e-05 (1 samples)
Buffer full stall rate = 0 (1 samples)
Buffer reserved stall rate = 0 (1 samples)
Crossbar conflict stall rate = 0.000132813 (1 samples)
Total run time 1.03253
