BEGIN Configuration File: /home/dell/Documents/claw/logs/mesh5x5_event.cfg
// 5x5 Mesh Simulation
topology = mesh;
k = 5;
n = 2;

// Routing
routing_function = dor;

// Flow control
num_vcs     = 4;
vc_buf_size = 8;
wait_for_tail_credit = 1;

// Traffic
traffic = uniform;
packet_size = 5;
injection_rate = 0.05;
injection_process = bernoulli;

// Simulation
sim_type = latency;
max_samples = 10000;
print_csv_results = 1;

END Configuration File: /home/dell/Documents/claw/logs/mesh5x5_event.cfg
Class 0:
Packet latency average = 30.7164
	minimum = 11
	maximum = 67
Network latency average = 30.1275
	minimum = 11
	maximum = 67
Slowest packet = 183
Flit latency average = 24.8722
	minimum = 7
	maximum = 63
Slowest flit = 919
Fragmentation average = 2.43121
	minimum = 0
	maximum = 26
Injected packet rate average = 0.04956
	minimum = 0.041 (at node 10)
	maximum = 0.065 (at node 16)
Accepted packet rate average = 0.04768
	minimum = 0.036 (at node 2)
	maximum = 0.06 (at node 19)
Injected flit rate average = 0.24716
	minimum = 0.205 (at node 10)
	maximum = 0.325 (at node 16)
Accepted flit rate average= 0.23952
	minimum = 0.18 (at node 2)
	maximum = 0.3 (at node 19)
Injected packet length average = 4.98709
Accepted packet length average = 5.02349
Total in-flight flits = 207 (0 measured)
Buffer busy stall rate = 0.0134
Buffer conflict stall rate = 0.00188
Buffer full stall rate = 0
Buffer reserved stall rate = 0
Crossbar conflict stall rate = 0.36064
latency change    = 1
throughput change = 1
Class 0:
Packet latency average = 30.8146
	minimum = 11
	maximum = 75
Network latency average = 30.1777
	minimum = 11
	maximum = 71
Slowest packet = 183
Flit latency average = 24.9009
	minimum = 7
	maximum = 67
Slowest flit = 8789
Fragmentation average = 2.43327
	minimum = 0
	maximum = 26
Injected packet rate average = 0.0501
	minimum = 0.0405 (at node 10)
	maximum = 0.0605 (at node 1)
Accepted packet rate average = 0.0493
	minimum = 0.041 (at node 18)
	maximum = 0.0595 (at node 22)
Injected flit rate average = 0.25012
	minimum = 0.2025 (at node 10)
	maximum = 0.3025 (at node 1)
Accepted flit rate average= 0.247
	minimum = 0.205 (at node 18)
	maximum = 0.2975 (at node 22)
Injected packet length average = 4.99242
Accepted packet length average = 5.01014
Total in-flight flits = 175 (0 measured)
Buffer busy stall rate = 0.0118
Buffer conflict stall rate = 0.00216
Buffer full stall rate = 0
Buffer reserved stall rate = 0
Crossbar conflict stall rate = 0.36634
latency change    = 0.00318555
throughput change = 0.0302834
Class 0:
Packet latency average = 29.8944
	minimum = 11
	maximum = 64
Network latency average = 29.1388
	minimum = 11
	maximum = 64
Slowest packet = 2518
Flit latency average = 24.0354
	minimum = 7
	maximum = 60
Slowest flit = 12591
Fragmentation average = 2.12606
	minimum = 0
	maximum = 20
Injected packet rate average = 0.04716
	minimum = 0.038 (at node 11)
	maximum = 0.065 (at node 3)
Accepted packet rate average = 0.04696
	minimum = 0.035 (at node 4)
	maximum = 0.062 (at node 5)
Injected flit rate average = 0.23608
	minimum = 0.19 (at node 11)
	maximum = 0.325 (at node 3)
Accepted flit rate average= 0.2352
	minimum = 0.173 (at node 17)
	maximum = 0.31 (at node 5)
Injected packet length average = 5.00594
Accepted packet length average = 5.00852
Total in-flight flits = 190 (0 measured)
Buffer busy stall rate = 0.0052
Buffer conflict stall rate = 0.00152
Buffer full stall rate = 0
Buffer reserved stall rate = 0
Crossbar conflict stall rate = 0.29076
latency change    = 0.0307826
throughput change = 0.0501701
Warmed up ...Time used is 3000 cycles
Class 0:
Packet latency average = 30.2166
	minimum = 11
	maximum = 61
Network latency average = 29.5635
	minimum = 11
	maximum = 61
Slowest packet = 4346
Flit latency average = 24.5325
	minimum = 7
	maximum = 57
Slowest flit = 21734
Fragmentation average = 2.24315
	minimum = 0
	maximum = 18
Injected packet rate average = 0.04992
	minimum = 0.041 (at node 8)
	maximum = 0.071 (at node 11)
Accepted packet rate average = 0.05
	minimum = 0.033 (at node 9)
	maximum = 0.071 (at node 8)
Injected flit rate average = 0.24916
	minimum = 0.205 (at node 8)
	maximum = 0.355 (at node 11)
Accepted flit rate average= 0.24952
	minimum = 0.163 (at node 9)
	maximum = 0.353 (at node 8)
Injected packet length average = 4.99119
Accepted packet length average = 4.9904
Total in-flight flits = 192 (192 measured)
Buffer busy stall rate = 0.00592
Buffer conflict stall rate = 0.00144
Buffer full stall rate = 0
Buffer reserved stall rate = 0
Crossbar conflict stall rate = 0.3294
latency change    = 0.0106637
throughput change = 0.0573902
Class 0:
Packet latency average = 30.3978
	minimum = 11
	maximum = 68
Network latency average = 29.765
	minimum = 11
	maximum = 67
Slowest packet = 5559
Flit latency average = 24.6372
	minimum = 7
	maximum = 63
Slowest flit = 27799
Fragmentation average = 2.29746
	minimum = 0
	maximum = 18
Injected packet rate average = 0.05044
	minimum = 0.044 (at node 23)
	maximum = 0.063 (at node 11)
Accepted packet rate average = 0.05052
	minimum = 0.0395 (at node 9)
	maximum = 0.0625 (at node 6)
Injected flit rate average = 0.25214
	minimum = 0.2195 (at node 23)
	maximum = 0.313 (at node 11)
Accepted flit rate average= 0.25234
	minimum = 0.1965 (at node 9)
	maximum = 0.313 (at node 6)
Injected packet length average = 4.99881
Accepted packet length average = 4.99485
Total in-flight flits = 183 (183 measured)
Buffer busy stall rate = 0.00706
Buffer conflict stall rate = 0.00142
Buffer full stall rate = 0
Buffer reserved stall rate = 0
Crossbar conflict stall rate = 0.34454
latency change    = 0.00596181
throughput change = 0.0111754
Class 0:
Packet latency average = 30.5888
	minimum = 11
	maximum = 68
Network latency average = 29.936
	minimum = 11
	maximum = 67
Slowest packet = 5559
Flit latency average = 24.7577
	minimum = 7
	maximum = 63
Slowest flit = 27799
Fragmentation average = 2.34507
	minimum = 0
	maximum = 18
Injected packet rate average = 0.0504
	minimum = 0.0443333 (at node 8)
	maximum = 0.0603333 (at node 20)
Accepted packet rate average = 0.0506
	minimum = 0.041 (at node 9)
	maximum = 0.0596667 (at node 11)
Injected flit rate average = 0.25212
	minimum = 0.221667 (at node 8)
	maximum = 0.302 (at node 20)
Accepted flit rate average= 0.252893
	minimum = 0.204333 (at node 9)
	maximum = 0.298333 (at node 11)
Injected packet length average = 5.00238
Accepted packet length average = 4.99789
Total in-flight flits = 123 (123 measured)
Buffer busy stall rate = 0.00813333
Buffer conflict stall rate = 0.00173333
Buffer full stall rate = 0
Buffer reserved stall rate = 0
Crossbar conflict stall rate = 0.351933
latency change    = 0.00624335
throughput change = 0.00218801
Class 0:
Packet latency average = 30.5813
	minimum = 11
	maximum = 68
Network latency average = 29.9246
	minimum = 11
	maximum = 67
Slowest packet = 5559
Flit latency average = 24.7515
	minimum = 7
	maximum = 63
Slowest flit = 27799
Fragmentation average = 2.30329
	minimum = 0
	maximum = 18
Injected packet rate average = 0.04985
	minimum = 0.044 (at node 19)
	maximum = 0.05875 (at node 20)
Accepted packet rate average = 0.04994
	minimum = 0.03975 (at node 9)
	maximum = 0.05625 (at node 21)
Injected flit rate average = 0.24932
	minimum = 0.221 (at node 19)
	maximum = 0.294 (at node 20)
Accepted flit rate average= 0.24949
	minimum = 0.19825 (at node 9)
	maximum = 0.28125 (at node 21)
Injected packet length average = 5.0014
Accepted packet length average = 4.99579
Total in-flight flits = 166 (166 measured)
Buffer busy stall rate = 0.008
Buffer conflict stall rate = 0.00172
Buffer full stall rate = 0
Buffer reserved stall rate = 0
Crossbar conflict stall rate = 0.34152
latency change    = 0.000244281
throughput change = 0.0136412
Draining all recorded packets ...
Draining remaining packets ...
Time taken is 7090 cycles
====== Overall Traffic Statistics ======
====== Traffic class 0 ======
Packet latency average = 30.5874 (1 samples)
	minimum = 11 (1 samples)
	maximum = 68 (1 samples)
Network latency average = 29.9322 (1 samples)
	minimum = 11 (1 samples)
	maximum = 67 (1 samples)
Flit latency average = 24.7507 (1 samples)
	minimum = 7 (1 samples)
	maximum = 63 (1 samples)
Fragmentation average = 2.30124 (1 samples)
	minimum = 0 (1 samples)
	maximum = 18 (1 samples)
Injected packet rate average = 0.04985 (1 samples)
	minimum = 0.044 (1 samples)
	maximum = 0.05875 (1 samples)
Accepted packet rate average = 0.04994 (1 samples)
	minimum = 0.03975 (1 samples)
	maximum = 0.05625 (1 samples)
Injected flit rate average = 0.24932 (1 samples)
	minimum = 0.221 (1 samples)
	maximum = 0.294 (1 samples)
Accepted flit rate average = 0.24949 (1 samples)
	minimum = 0.19825 (1 samples)
	maximum = 0.28125 (1 samples)
Injected packet size average = 5.0014 (1 samples)
Accepted packet size average = 4.99579 (1 samples)
Hops average = 4.23085 (1 samples)
Buffer busy stall rate = 0.008 (1 samples)
Buffer conflict stall rate = 0.00172 (1 samples)
Buffer full stall rate = 0 (1 samples)
Buffer reserved stall rate = 0 (1 samples)
Crossbar conflict stall rate = 0.34152 (1 samples)
results:0,uniform,0,0.05,11,30.5874,68,11,29.9322,67,7,24.7507,63,0,2.30124,18,0.044,0.04985,0.05875,0.03975,0.04994,0.05625,0.221,0.24932,0.294,0.19825,0.24949,0.28125,5.0014,4.99579,4.23085,0.008,0.00172,0,0,0.34152
Total run time 2.07746
