BEGIN Configuration File: /home/dell/Documents/claw/booksim/current_sim.cfg
// 6x6 Torus Simulation Configuration
topology = torus;
k = 6;
n = 2;

// Routing
routing_function = dim_order;

// Flow control
num_vcs     = 4;
vc_buf_size = 8;
wait_for_tail_credit = 1;

// Traffic
traffic = uniform;
packet_size = 5;
injection_rate = 0.10;
injection_process = bernoulli;

// Simulation
sim_type = latency;
max_samples = 10000;
print_csv_results = 1;

END Configuration File: /home/dell/Documents/claw/booksim/current_sim.cfg
Class 0:
Packet latency average = 49.6171
	minimum = 11
	maximum = 222
Network latency average = 46.3157
	minimum = 11
	maximum = 212
Slowest packet = 715
Flit latency average = 40.3288
	minimum = 7
	maximum = 208
Slowest flit = 6999
Fragmentation average = 3.88101
	minimum = 0
	maximum = 21
Injected packet rate average = 0.0954167
	minimum = 0.075 (at node 27)
	maximum = 0.115 (at node 8)
Accepted packet rate average = 0.0901111
	minimum = 0.061 (at node 13)
	maximum = 0.106 (at node 1)
Injected flit rate average = 0.476194
	minimum = 0.374 (at node 27)
	maximum = 0.574 (at node 8)
Accepted flit rate average= 0.452583
	minimum = 0.305 (at node 13)
	maximum = 0.532 (at node 1)
Injected packet length average = 4.99068
Accepted packet length average = 5.0225
Total in-flight flits = 897 (0 measured)
Buffer busy stall rate = 1.19661
Buffer conflict stall rate = 0.06925
Buffer full stall rate = 0
Buffer reserved stall rate = 0
Crossbar conflict stall rate = 0.951139
latency change    = 1
throughput change = 1
Class 0:
Packet latency average = 63.5726
	minimum = 11
	maximum = 626
Network latency average = 52.6987
	minimum = 11
	maximum = 605
Slowest packet = 4713
Flit latency average = 46.7124
	minimum = 7
	maximum = 601
Slowest flit = 23569
Fragmentation average = 3.89927
	minimum = 0
	maximum = 22
Injected packet rate average = 0.0955972
	minimum = 0.078 (at node 4)
	maximum = 0.104 (at node 21)
Accepted packet rate average = 0.0929306
	minimum = 0.072 (at node 13)
	maximum = 0.1045 (at node 15)
Injected flit rate average = 0.477444
	minimum = 0.39 (at node 4)
	maximum = 0.52 (at node 21)
Accepted flit rate average= 0.465542
	minimum = 0.36 (at node 13)
	maximum = 0.5245 (at node 15)
Injected packet length average = 4.99433
Accepted packet length average = 5.00957
Total in-flight flits = 926 (0 measured)
Buffer busy stall rate = 1.77821
Buffer conflict stall rate = 0.0997778
Buffer full stall rate = 0
Buffer reserved stall rate = 0
Crossbar conflict stall rate = 0.997042
latency change    = 0.21952
throughput change = 0.027835
Class 0:
Packet latency average = 131.053
	minimum = 11
	maximum = 817
Network latency average = 62.8177
	minimum = 11
	maximum = 706
Slowest packet = 4697
Flit latency average = 56.8377
	minimum = 7
	maximum = 702
Slowest flit = 23489
Fragmentation average = 3.82456
	minimum = 0
	maximum = 27
Injected packet rate average = 0.0945278
	minimum = 0.054 (at node 29)
	maximum = 0.118 (at node 33)
Accepted packet rate average = 0.0934167
	minimum = 0.075 (at node 24)
	maximum = 0.115 (at node 34)
Injected flit rate average = 0.472806
	minimum = 0.274 (at node 29)
	maximum = 0.591 (at node 33)
Accepted flit rate average= 0.467306
	minimum = 0.371 (at node 24)
	maximum = 0.575 (at node 34)
Injected packet length average = 5.00176
Accepted packet length average = 5.00238
Total in-flight flits = 1143 (0 measured)
Buffer busy stall rate = 2.69797
Buffer conflict stall rate = 0.137361
Buffer full stall rate = 0
Buffer reserved stall rate = 0
Crossbar conflict stall rate = 1.01547
latency change    = 0.514908
throughput change = 0.00377459
Warmed up ...Time used is 3000 cycles
Class 0:
Packet latency average = 183.515
	minimum = 11
	maximum = 1107
Network latency average = 62.4079
	minimum = 11
	maximum = 382
Slowest packet = 10302
Flit latency average = 59.709
	minimum = 7
	maximum = 646
Slowest flit = 47528
Fragmentation average = 4.19581
	minimum = 0
	maximum = 25
Injected packet rate average = 0.0970833
	minimum = 0.056 (at node 29)
	maximum = 0.138 (at node 25)
Accepted packet rate average = 0.0969722
	minimum = 0.081 (at node 7)
	maximum = 0.112 (at node 32)
Injected flit rate average = 0.485556
	minimum = 0.28 (at node 29)
	maximum = 0.687 (at node 25)
Accepted flit rate average= 0.485278
	minimum = 0.402 (at node 7)
	maximum = 0.565 (at node 32)
Injected packet length average = 5.00143
Accepted packet length average = 5.0043
Total in-flight flits = 1148 (1148 measured)
Buffer busy stall rate = 2.91589
Buffer conflict stall rate = 0.156472
Buffer full stall rate = 0
Buffer reserved stall rate = 0
Crossbar conflict stall rate = 1.13528
latency change    = 0.285877
throughput change = 0.0370349
Class 0:
Packet latency average = 192.174
	minimum = 11
	maximum = 1233
Network latency average = 65.1349
	minimum = 11
	maximum = 531
Slowest packet = 10302
Flit latency average = 60.6288
	minimum = 7
	maximum = 646
Slowest flit = 47528
Fragmentation average = 4.15205
	minimum = 0
	maximum = 27
Injected packet rate average = 0.09775
	minimum = 0.085 (at node 11)
	maximum = 0.118 (at node 25)
Accepted packet rate average = 0.0974583
	minimum = 0.0845 (at node 16)
	maximum = 0.109 (at node 34)
Injected flit rate average = 0.48875
	minimum = 0.4245 (at node 11)
	maximum = 0.59 (at node 25)
Accepted flit rate average= 0.487472
	minimum = 0.4215 (at node 16)
	maximum = 0.545 (at node 34)
Injected packet length average = 5
Accepted packet length average = 5.00185
Total in-flight flits = 1240 (1240 measured)
Buffer busy stall rate = 3.05737
Buffer conflict stall rate = 0.160403
Buffer full stall rate = 0
Buffer reserved stall rate = 0
Crossbar conflict stall rate = 1.14326
latency change    = 0.0450548
throughput change = 0.00450168
Class 0:
Packet latency average = 191.242
	minimum = 11
	maximum = 1233
Network latency average = 66.4272
	minimum = 11
	maximum = 531
Slowest packet = 10302
Flit latency average = 61.367
	minimum = 7
	maximum = 646
Slowest flit = 47528
Fragmentation average = 4.15352
	minimum = 0
	maximum = 27
Injected packet rate average = 0.0976852
	minimum = 0.076 (at node 11)
	maximum = 0.113 (at node 25)
Accepted packet rate average = 0.0974815
	minimum = 0.0886667 (at node 4)
	maximum = 0.108667 (at node 31)
Injected flit rate average = 0.488213
	minimum = 0.38 (at node 11)
	maximum = 0.565 (at node 25)
Accepted flit rate average= 0.487444
	minimum = 0.442667 (at node 4)
	maximum = 0.546 (at node 31)
Injected packet length average = 4.99782
Accepted packet length average = 5.00038
Total in-flight flits = 1254 (1254 measured)
Buffer busy stall rate = 3.12219
Buffer conflict stall rate = 0.16438
Buffer full stall rate = 0
Buffer reserved stall rate = 0
Crossbar conflict stall rate = 1.138
latency change    = 0.00486954
throughput change = 5.69866e-05
Class 0:
Packet latency average = 198.056
	minimum = 11
	maximum = 1370
Network latency average = 66.0914
	minimum = 11
	maximum = 531
Slowest packet = 10302
Flit latency average = 60.7501
	minimum = 7
	maximum = 646
Slowest flit = 47528
Fragmentation average = 4.17367
	minimum = 0
	maximum = 32
Injected packet rate average = 0.0979375
	minimum = 0.0785 (at node 11)
	maximum = 0.1105 (at node 25)
Accepted packet rate average = 0.0979722
	minimum = 0.09075 (at node 17)
	maximum = 0.11 (at node 31)
Injected flit rate average = 0.489667
	minimum = 0.3925 (at node 11)
	maximum = 0.5525 (at node 25)
Accepted flit rate average= 0.489903
	minimum = 0.454 (at node 17)
	maximum = 0.55025 (at node 31)
Injected packet length average = 4.99979
Accepted packet length average = 5.00043
Total in-flight flits = 1092 (1092 measured)
Buffer busy stall rate = 3.07117
Buffer conflict stall rate = 0.162569
Buffer full stall rate = 0
Buffer reserved stall rate = 0
Crossbar conflict stall rate = 1.14627
latency change    = 0.0344042
throughput change = 0.005018
Draining all recorded packets ...
Class 0:
Remaining flits: 134711 134712 134713 134714 134915 134916 134917 134918 134919 134950 [...] (1077 flits)
Measured flits: 134711 134712 134713 134714 134915 134916 134917 134918 134919 137485 [...] (61 flits)
Draining remaining packets ...
Time taken is 8807 cycles
====== Overall Traffic Statistics ======
====== Traffic class 0 ======
Packet latency average = 220.552 (1 samples)
	minimum = 11 (1 samples)
	maximum = 1682 (1 samples)
Network latency average = 67.0758 (1 samples)
	minimum = 11 (1 samples)
	maximum = 531 (1 samples)
Flit latency average = 60.3232 (1 samples)
	minimum = 7 (1 samples)
	maximum = 646 (1 samples)
Fragmentation average = 4.18371 (1 samples)
	minimum = 0 (1 samples)
	maximum = 32 (1 samples)
Injected packet rate average = 0.0979375 (1 samples)
	minimum = 0.0785 (1 samples)
	maximum = 0.1105 (1 samples)
Accepted packet rate average = 0.0979722 (1 samples)
	minimum = 0.09075 (1 samples)
	maximum = 0.11 (1 samples)
Injected flit rate average = 0.489667 (1 samples)
	minimum = 0.3925 (1 samples)
	maximum = 0.5525 (1 samples)
Accepted flit rate average = 0.489903 (1 samples)
	minimum = 0.454 (1 samples)
	maximum = 0.55025 (1 samples)
Injected packet size average = 4.99979 (1 samples)
Accepted packet size average = 5.00043 (1 samples)
Hops average = 3.99898 (1 samples)
Buffer busy stall rate = 3.07117 (1 samples)
Buffer conflict stall rate = 0.162569 (1 samples)
Buffer full stall rate = 0 (1 samples)
Buffer reserved stall rate = 0 (1 samples)
Crossbar conflict stall rate = 1.14627 (1 samples)
results:0,uniform,0,0.1,11,220.552,1682,11,67.0758,531,7,60.3232,646,0,4.18371,32,0.0785,0.0979375,0.1105,0.09075,0.0979722,0.11,0.3925,0.489667,0.5525,0.454,0.489903,0.55025,4.99979,5.00043,3.99898,3.07117,0.162569,0,0,1.14627
Total run time 7.33473
