BEGIN Configuration File: /home/dell/Documents/claw/booksim/current_sim.cfg
// 6x6 Mesh Simulation Configuration
topology = mesh;
k = 6;
n = 2;

// Routing
routing_function = dor;

// Flow control
num_vcs     = 4;
vc_buf_size = 8;
wait_for_tail_credit = 1;

// Traffic
traffic = uniform;
packet_size = 5;
injection_rate = 0.10;
injection_process = bernoulli;

// Simulation
sim_type = latency;
max_samples = 10000;
print_csv_results = 1;

END Configuration File: /home/dell/Documents/claw/booksim/current_sim.cfg
Class 0:
Packet latency average = 58.7285
	minimum = 11
	maximum = 262
Network latency average = 54.4574
	minimum = 11
	maximum = 262
Slowest packet = 2508
Flit latency average = 47.1938
	minimum = 7
	maximum = 258
Slowest flit = 12544
Fragmentation average = 6.17664
	minimum = 0
	maximum = 37
Injected packet rate average = 0.0940556
	minimum = 0.08 (at node 30)
	maximum = 0.109 (at node 5)
Accepted packet rate average = 0.0872778
	minimum = 0.069 (at node 13)
	maximum = 0.111 (at node 25)
Injected flit rate average = 0.469083
	minimum = 0.4 (at node 30)
	maximum = 0.545 (at node 5)
Accepted flit rate average= 0.439389
	minimum = 0.346 (at node 13)
	maximum = 0.561 (at node 25)
Injected packet length average = 4.9873
Accepted packet length average = 5.03437
Total in-flight flits = 1162 (0 measured)
Buffer busy stall rate = 1.49567
Buffer conflict stall rate = 0.172889
Buffer full stall rate = 0
Buffer reserved stall rate = 0
Crossbar conflict stall rate = 1.95167
latency change    = 1
throughput change = 1
Class 0:
Packet latency average = 83.5794
	minimum = 11
	maximum = 484
Network latency average = 64.9679
	minimum = 11
	maximum = 427
Slowest packet = 2883
Flit latency average = 57.6092
	minimum = 7
	maximum = 423
Slowest flit = 14419
Fragmentation average = 6.45423
	minimum = 0
	maximum = 37
Injected packet rate average = 0.095375
	minimum = 0.081 (at node 28)
	maximum = 0.1095 (at node 20)
Accepted packet rate average = 0.0920972
	minimum = 0.0815 (at node 13)
	maximum = 0.109 (at node 25)
Injected flit rate average = 0.476444
	minimum = 0.405 (at node 28)
	maximum = 0.5475 (at node 20)
Accepted flit rate average= 0.461528
	minimum = 0.4075 (at node 13)
	maximum = 0.548 (at node 25)
Injected packet length average = 4.99549
Accepted packet length average = 5.01131
Total in-flight flits = 1135 (0 measured)
Buffer busy stall rate = 2.26271
Buffer conflict stall rate = 0.256042
Buffer full stall rate = 0
Buffer reserved stall rate = 0
Crossbar conflict stall rate = 2.1514
latency change    = 0.297333
throughput change = 0.0479687
Class 0:
Packet latency average = 142.71
	minimum = 11
	maximum = 920
Network latency average = 76.0217
	minimum = 11
	maximum = 433
Slowest packet = 6420
Flit latency average = 68.6431
	minimum = 7
	maximum = 429
Slowest flit = 28384
Fragmentation average = 6.38346
	minimum = 0
	maximum = 36
Injected packet rate average = 0.0929167
	minimum = 0.06 (at node 29)
	maximum = 0.123 (at node 19)
Accepted packet rate average = 0.0923611
	minimum = 0.07 (at node 17)
	maximum = 0.121 (at node 3)
Injected flit rate average = 0.464222
	minimum = 0.296 (at node 29)
	maximum = 0.611 (at node 19)
Accepted flit rate average= 0.462389
	minimum = 0.351 (at node 17)
	maximum = 0.598 (at node 3)
Injected packet length average = 4.99611
Accepted packet length average = 5.00632
Total in-flight flits = 1234 (0 measured)
Buffer busy stall rate = 3.23586
Buffer conflict stall rate = 0.344722
Buffer full stall rate = 0
Buffer reserved stall rate = 0
Crossbar conflict stall rate = 2.12092
latency change    = 0.41434
throughput change = 0.00186231
Warmed up ...Time used is 3000 cycles
Class 0:
Packet latency average = 205.767
	minimum = 11
	maximum = 1081
Network latency average = 72.966
	minimum = 11
	maximum = 347
Slowest packet = 10222
Flit latency average = 69.0093
	minimum = 7
	maximum = 408
Slowest flit = 48334
Fragmentation average = 6.8367
	minimum = 0
	maximum = 33
Injected packet rate average = 0.0987778
	minimum = 0.076 (at node 31)
	maximum = 0.117 (at node 19)
Accepted packet rate average = 0.0980556
	minimum = 0.074 (at node 31)
	maximum = 0.129 (at node 30)
Injected flit rate average = 0.494083
	minimum = 0.381 (at node 31)
	maximum = 0.589 (at node 19)
Accepted flit rate average= 0.489694
	minimum = 0.374 (at node 31)
	maximum = 0.652 (at node 30)
Injected packet length average = 5.00197
Accepted packet length average = 4.99405
Total in-flight flits = 1380 (1380 measured)
Buffer busy stall rate = 3.24586
Buffer conflict stall rate = 0.371861
Buffer full stall rate = 0
Buffer reserved stall rate = 0
Crossbar conflict stall rate = 2.43044
latency change    = 0.306451
throughput change = 0.0557604
Class 0:
Packet latency average = 210.401
	minimum = 11
	maximum = 1081
Network latency average = 74.0414
	minimum = 11
	maximum = 541
Slowest packet = 10222
Flit latency average = 68.3154
	minimum = 7
	maximum = 537
Slowest flit = 63599
Fragmentation average = 6.68434
	minimum = 0
	maximum = 36
Injected packet rate average = 0.0965139
	minimum = 0.0795 (at node 31)
	maximum = 0.108 (at node 2)
Accepted packet rate average = 0.0966667
	minimum = 0.0855 (at node 18)
	maximum = 0.1115 (at node 33)
Injected flit rate average = 0.482875
	minimum = 0.398 (at node 31)
	maximum = 0.5415 (at node 19)
Accepted flit rate average= 0.483306
	minimum = 0.427 (at node 18)
	maximum = 0.558 (at node 33)
Injected packet length average = 5.00317
Accepted packet length average = 4.99971
Total in-flight flits = 1191 (1191 measured)
Buffer busy stall rate = 3.11525
Buffer conflict stall rate = 0.356514
Buffer full stall rate = 0
Buffer reserved stall rate = 0
Crossbar conflict stall rate = 2.36583
latency change    = 0.0220236
throughput change = 0.0132192
Class 0:
Packet latency average = 216.605
	minimum = 11
	maximum = 1221
Network latency average = 75.0645
	minimum = 11
	maximum = 541
Slowest packet = 10222
Flit latency average = 68.62
	minimum = 7
	maximum = 537
Slowest flit = 63599
Fragmentation average = 6.79855
	minimum = 0
	maximum = 38
Injected packet rate average = 0.0970648
	minimum = 0.086 (at node 25)
	maximum = 0.109667 (at node 2)
Accepted packet rate average = 0.0969167
	minimum = 0.083 (at node 18)
	maximum = 0.109333 (at node 33)
Injected flit rate average = 0.485361
	minimum = 0.43 (at node 25)
	maximum = 0.548333 (at node 2)
Accepted flit rate average= 0.484833
	minimum = 0.415 (at node 18)
	maximum = 0.549 (at node 33)
Injected packet length average = 5.00038
Accepted packet length average = 5.00258
Total in-flight flits = 1297 (1297 measured)
Buffer busy stall rate = 3.19506
Buffer conflict stall rate = 0.365731
Buffer full stall rate = 0
Buffer reserved stall rate = 0
Crossbar conflict stall rate = 2.38585
latency change    = 0.028641
throughput change = 0.00315114
Class 0:
Packet latency average = 232.802
	minimum = 11
	maximum = 1380
Network latency average = 77.1004
	minimum = 11
	maximum = 541
Slowest packet = 10222
Flit latency average = 70.3687
	minimum = 7
	maximum = 537
Slowest flit = 63599
Fragmentation average = 6.77533
	minimum = 0
	maximum = 38
Injected packet rate average = 0.0968056
	minimum = 0.087 (at node 31)
	maximum = 0.10425 (at node 19)
Accepted packet rate average = 0.0965556
	minimum = 0.0875 (at node 4)
	maximum = 0.1075 (at node 33)
Injected flit rate average = 0.484194
	minimum = 0.43525 (at node 31)
	maximum = 0.52225 (at node 19)
Accepted flit rate average= 0.482646
	minimum = 0.4385 (at node 4)
	maximum = 0.53675 (at node 33)
Injected packet length average = 5.00172
Accepted packet length average = 4.99863
Total in-flight flits = 1473 (1473 measured)
Buffer busy stall rate = 3.34954
Buffer conflict stall rate = 0.378757
Buffer full stall rate = 0
Buffer reserved stall rate = 0
Crossbar conflict stall rate = 2.37246
latency change    = 0.0695752
throughput change = 0.00453231
Class 0:
Packet latency average = 247.64
	minimum = 11
	maximum = 1562
Network latency average = 77.7273
	minimum = 11
	maximum = 541
Slowest packet = 10222
Flit latency average = 70.8245
	minimum = 7
	maximum = 537
Slowest flit = 63599
Fragmentation average = 6.75066
	minimum = 0
	maximum = 41
Injected packet rate average = 0.0964111
	minimum = 0.0888 (at node 25)
	maximum = 0.1072 (at node 5)
Accepted packet rate average = 0.09635
	minimum = 0.0872 (at node 4)
	maximum = 0.1062 (at node 33)
Injected flit rate average = 0.482133
	minimum = 0.444 (at node 25)
	maximum = 0.536 (at node 5)
Accepted flit rate average= 0.481883
	minimum = 0.4366 (at node 4)
	maximum = 0.5304 (at node 33)
Injected packet length average = 5.00081
Accepted packet length average = 5.00138
Total in-flight flits = 1270 (1270 measured)
Buffer busy stall rate = 3.37133
Buffer conflict stall rate = 0.37865
Buffer full stall rate = 0
Buffer reserved stall rate = 0
Crossbar conflict stall rate = 2.35481
latency change    = 0.0599181
throughput change = 0.00158233
Class 0:
Packet latency average = 265.732
	minimum = 11
	maximum = 1562
Network latency average = 77.6664
	minimum = 11
	maximum = 541
Slowest packet = 10222
Flit latency average = 70.6772
	minimum = 7
	maximum = 537
Slowest flit = 63599
Fragmentation average = 6.73562
	minimum = 0
	maximum = 41
Injected packet rate average = 0.0965278
	minimum = 0.0896667 (at node 1)
	maximum = 0.106167 (at node 5)
Accepted packet rate average = 0.0963889
	minimum = 0.0888333 (at node 4)
	maximum = 0.104833 (at node 33)
Injected flit rate average = 0.482741
	minimum = 0.448 (at node 1)
	maximum = 0.530833 (at node 5)
Accepted flit rate average= 0.482042
	minimum = 0.444667 (at node 4)
	maximum = 0.523833 (at node 33)
Injected packet length average = 5.00106
Accepted packet length average = 5.00101
Total in-flight flits = 1388 (1388 measured)
Buffer busy stall rate = 3.37532
Buffer conflict stall rate = 0.378005
Buffer full stall rate = 0
Buffer reserved stall rate = 0
Crossbar conflict stall rate = 2.35199
latency change    = 0.0680815
throughput change = 0.000328464
Class 0:
Packet latency average = 277.734
	minimum = 11
	maximum = 1826
Network latency average = 78.7187
	minimum = 11
	maximum = 594
Slowest packet = 10222
Flit latency average = 71.6184
	minimum = 7
	maximum = 590
Slowest flit = 155719
Fragmentation average = 6.75206
	minimum = 0
	maximum = 41
Injected packet rate average = 0.0962381
	minimum = 0.0838571 (at node 1)
	maximum = 0.103857 (at node 5)
Accepted packet rate average = 0.0960754
	minimum = 0.089 (at node 5)
	maximum = 0.103286 (at node 33)
Injected flit rate average = 0.481278
	minimum = 0.419286 (at node 1)
	maximum = 0.519286 (at node 5)
Accepted flit rate average= 0.480437
	minimum = 0.445 (at node 5)
	maximum = 0.516143 (at node 33)
Injected packet length average = 5.00091
Accepted packet length average = 5.00062
Total in-flight flits = 1469 (1469 measured)
Buffer busy stall rate = 3.46812
Buffer conflict stall rate = 0.383754
Buffer full stall rate = 0
Buffer reserved stall rate = 0
Crossbar conflict stall rate = 2.34154
latency change    = 0.0432135
throughput change = 0.00334104
Class 0:
Packet latency average = 299.082
	minimum = 11
	maximum = 2045
Network latency average = 79.6217
	minimum = 11
	maximum = 594
Slowest packet = 10222
Flit latency average = 72.4643
	minimum = 7
	maximum = 590
Slowest flit = 155719
Fragmentation average = 6.74007
	minimum = 0
	maximum = 41
Injected packet rate average = 0.0961562
	minimum = 0.084875 (at node 1)
	maximum = 0.10425 (at node 2)
Accepted packet rate average = 0.0960764
	minimum = 0.08975 (at node 6)
	maximum = 0.10375 (at node 33)
Injected flit rate average = 0.480806
	minimum = 0.424375 (at node 1)
	maximum = 0.520875 (at node 2)
Accepted flit rate average= 0.480472
	minimum = 0.448625 (at node 28)
	maximum = 0.519875 (at node 33)
Injected packet length average = 5.00025
Accepted packet length average = 5.00094
Total in-flight flits = 1328 (1328 measured)
Buffer busy stall rate = 3.51939
Buffer conflict stall rate = 0.389378
Buffer full stall rate = 0
Buffer reserved stall rate = 0
Crossbar conflict stall rate = 2.3345
latency change    = 0.0713805
throughput change = 7.43316e-05
Class 0:
Packet latency average = 316.804
	minimum = 11
	maximum = 2274
Network latency average = 79.5918
	minimum = 11
	maximum = 594
Slowest packet = 10222
Flit latency average = 72.378
	minimum = 7
	maximum = 590
Slowest flit = 155719
Fragmentation average = 6.74556
	minimum = 0
	maximum = 41
Injected packet rate average = 0.0959877
	minimum = 0.0837778 (at node 1)
	maximum = 0.103333 (at node 2)
Accepted packet rate average = 0.0960185
	minimum = 0.0883333 (at node 6)
	maximum = 0.103889 (at node 33)
Injected flit rate average = 0.479941
	minimum = 0.418889 (at node 1)
	maximum = 0.516667 (at node 2)
Accepted flit rate average= 0.480056
	minimum = 0.441778 (at node 6)
	maximum = 0.519111 (at node 33)
Injected packet length average = 5.00003
Accepted packet length average = 4.99961
Total in-flight flits = 1176 (1176 measured)
Buffer busy stall rate = 3.50242
Buffer conflict stall rate = 0.387969
Buffer full stall rate = 0
Buffer reserved stall rate = 0
Crossbar conflict stall rate = 2.33285
latency change    = 0.05594
throughput change = 0.000867955
Class 0:
Packet latency average = 334.882
	minimum = 11
	maximum = 2495
Network latency average = 79.5081
	minimum = 11
	maximum = 594
Slowest packet = 10222
Flit latency average = 72.2663
	minimum = 7
	maximum = 590
Slowest flit = 155719
Fragmentation average = 6.74536
	minimum = 0
	maximum = 41
Injected packet rate average = 0.0961139
	minimum = 0.0841 (at node 1)
	maximum = 0.1027 (at node 14)
Accepted packet rate average = 0.0960472
	minimum = 0.0893 (at node 6)
	maximum = 0.1036 (at node 33)
Injected flit rate average = 0.48055
	minimum = 0.4201 (at node 1)
	maximum = 0.5135 (at node 14)
Accepted flit rate average= 0.480219
	minimum = 0.4469 (at node 6)
	maximum = 0.5181 (at node 33)
Injected packet length average = 4.9998
Accepted packet length average = 4.99983
Total in-flight flits = 1335 (1335 measured)
Buffer busy stall rate = 3.50059
Buffer conflict stall rate = 0.386875
Buffer full stall rate = 0
Buffer reserved stall rate = 0
Crossbar conflict stall rate = 2.33502
latency change    = 0.053983
throughput change = 0.000341279
Class 0:
Packet latency average = 351.724
	minimum = 11
	maximum = 2662
Network latency average = 79.4366
	minimum = 11
	maximum = 594
Slowest packet = 10222
Flit latency average = 72.1695
	minimum = 7
	maximum = 590
Slowest flit = 155719
Fragmentation average = 6.742
	minimum = 0
	maximum = 41
Injected packet rate average = 0.0960985
	minimum = 0.0844545 (at node 1)
	maximum = 0.102364 (at node 2)
Accepted packet rate average = 0.0961111
	minimum = 0.0904545 (at node 6)
	maximum = 0.102 (at node 33)
Injected flit rate average = 0.48054
	minimum = 0.422273 (at node 1)
	maximum = 0.511545 (at node 2)
Accepted flit rate average= 0.480449
	minimum = 0.452455 (at node 6)
	maximum = 0.509727 (at node 33)
Injected packet length average = 5.0005
Accepted packet length average = 4.9989
Total in-flight flits = 1266 (1266 measured)
Buffer busy stall rate = 3.50078
Buffer conflict stall rate = 0.386851
Buffer full stall rate = 0
Buffer reserved stall rate = 0
Crossbar conflict stall rate = 2.33443
latency change    = 0.047883
throughput change = 0.000478823
Class 0:
Packet latency average = 368.285
	minimum = 11
	maximum = 2766
Network latency average = 79.5922
	minimum = 11
	maximum = 594
Slowest packet = 10222
Flit latency average = 72.2959
	minimum = 7
	maximum = 590
Slowest flit = 155719
Fragmentation average = 6.74177
	minimum = 0
	maximum = 41
Injected packet rate average = 0.0961551
	minimum = 0.0850833 (at node 1)
	maximum = 0.103417 (at node 14)
Accepted packet rate average = 0.0960833
	minimum = 0.0905 (at node 6)
	maximum = 0.102333 (at node 34)
Injected flit rate average = 0.480796
	minimum = 0.425417 (at node 1)
	maximum = 0.517083 (at node 14)
Accepted flit rate average= 0.480458
	minimum = 0.452583 (at node 6)
	maximum = 0.511667 (at node 34)
Injected packet length average = 5.00022
Accepted packet length average = 5.00043
Total in-flight flits = 1386 (1386 measured)
Buffer busy stall rate = 3.51107
Buffer conflict stall rate = 0.388076
Buffer full stall rate = 0
Buffer reserved stall rate = 0
Crossbar conflict stall rate = 2.33686
latency change    = 0.0449684
throughput change = 1.83957e-05
Class 0:
Packet latency average = 383.081
	minimum = 11
	maximum = 2839
Network latency average = 80.1056
	minimum = 11
	maximum = 738
Slowest packet = 10222
Flit latency average = 72.8001
	minimum = 7
	maximum = 734
Slowest flit = 260109
Fragmentation average = 6.73494
	minimum = 0
	maximum = 41
Injected packet rate average = 0.0961624
	minimum = 0.0847692 (at node 1)
	maximum = 0.103692 (at node 33)
Accepted packet rate average = 0.0960641
	minimum = 0.0913077 (at node 6)
	maximum = 0.101692 (at node 34)
Injected flit rate average = 0.480825
	minimum = 0.423769 (at node 1)
	maximum = 0.518308 (at node 33)
Accepted flit rate average= 0.480308
	minimum = 0.456538 (at node 6)
	maximum = 0.508154 (at node 34)
Injected packet length average = 5.00013
Accepted packet length average = 4.99987
Total in-flight flits = 1495 (1495 measured)
Buffer busy stall rate = 3.56453
Buffer conflict stall rate = 0.392598
Buffer full stall rate = 0
Buffer reserved stall rate = 0
Crossbar conflict stall rate = 2.33657
latency change    = 0.0386237
throughput change = 0.000313634
Draining all recorded packets ...
Class 0:
Remaining flits: 289220 289221 289222 289223 289224 289300 289301 289302 289303 289304 [...] (1417 flits)
Measured flits: 289220 289221 289222 289223 289224 289300 289301 289302 289303 289304 [...] (395 flits)
Class 0:
Remaining flits: 305720 305721 305722 305723 305724 305885 305886 305887 305888 305889 [...] (1411 flits)
Measured flits: 305720 305721 305722 305723 305724 305885 305886 305887 305888 305889 [...] (260 flits)
Class 0:
Remaining flits: 321595 321596 321597 321598 321599 322170 322171 322172 322173 322174 [...] (1493 flits)
Measured flits: 325365 325366 325367 325368 325369 325705 325706 325707 325708 325709 [...] (97 flits)
Draining remaining packets ...
Time taken is 19665 cycles
====== Overall Traffic Statistics ======
====== Traffic class 0 ======
Packet latency average = 455.312 (1 samples)
	minimum = 11 (1 samples)
	maximum = 3671 (1 samples)
Network latency average = 81.649 (1 samples)
	minimum = 11 (1 samples)
	maximum = 738 (1 samples)
Flit latency average = 73.8592 (1 samples)
	minimum = 7 (1 samples)
	maximum = 734 (1 samples)
Fragmentation average = 6.74491 (1 samples)
	minimum = 0 (1 samples)
	maximum = 41 (1 samples)
Injected packet rate average = 0.0961624 (1 samples)
	minimum = 0.0847692 (1 samples)
	maximum = 0.103692 (1 samples)
Accepted packet rate average = 0.0960641 (1 samples)
	minimum = 0.0913077 (1 samples)
	maximum = 0.101692 (1 samples)
Injected flit rate average = 0.480825 (1 samples)
	minimum = 0.423769 (1 samples)
	maximum = 0.518308 (1 samples)
Accepted flit rate average = 0.480308 (1 samples)
	minimum = 0.456538 (1 samples)
	maximum = 0.508154 (1 samples)
Injected packet size average = 5.00013 (1 samples)
Accepted packet size average = 4.99987 (1 samples)
Hops average = 4.88481 (1 samples)
Buffer busy stall rate = 3.56453 (1 samples)
Buffer conflict stall rate = 0.392598 (1 samples)
Buffer full stall rate = 0 (1 samples)
Buffer reserved stall rate = 0 (1 samples)
Crossbar conflict stall rate = 2.33657 (1 samples)
results:0,uniform,0,0.1,11,455.312,3671,11,81.649,738,7,73.8592,734,0,6.74491,41,0.0847692,0.0961624,0.103692,0.0913077,0.0960641,0.101692,0.423769,0.480825,0.518308,0.456538,0.480308,0.508154,5.00013,4.99987,4.88481,3.56453,0.392598,0,0,2.33657
Total run time 20.2975
