BEGIN Configuration File: /home/dell/Documents/claw/agent/torus5x5.cfg
// 5x5 Torus configuration
topology = torus;
k = 5;
n = 2;

// Routing
routing_function = dim_order;

// Flow control
num_vcs = 2;

// Traffic
traffic = uniform;
injection_rate = 0.075;

// Simulation parameters
sim_count = 1;
sim_type = latency;
warmup_periods = 1000;
max_samples = 10000;

END Configuration File: /home/dell/Documents/claw/agent/torus5x5.cfg
OVERRIDE Parameter: injection_rate=0.075
OVERRIDE Parameter: traffic=uniform
Class 0:
Packet latency average = 21.5204
	minimum = 7
	maximum = 38
Network latency average = 21.5204
	minimum = 7
	maximum = 38
Slowest packet = 1656
Flit latency average = 21.5204
	minimum = 7
	maximum = 38
Slowest flit = 1656
Fragmentation average = 0
	minimum = 0
	maximum = 0
Injected packet rate average = 0.07284
	minimum = 0.06 (at node 8)
	maximum = 0.09 (at node 13)
Accepted packet rate average = 0.07148
	minimum = 0.062 (at node 2)
	maximum = 0.088 (at node 4)
Injected flit rate average = 0.07284
	minimum = 0.06 (at node 8)
	maximum = 0.09 (at node 13)
Accepted flit rate average= 0.07148
	minimum = 0.062 (at node 2)
	maximum = 0.088 (at node 4)
Injected packet length average = 1
Accepted packet length average = 1
Total in-flight flits = 34 (0 measured)
Buffer busy stall rate = 0.00744
Buffer conflict stall rate = 0.00324
Buffer full stall rate = 0
Buffer reserved stall rate = 0
Crossbar conflict stall rate = 0.00156
latency change    = 1
throughput change = 1
Class 0:
Packet latency average = 21.8465
	minimum = 7
	maximum = 39
Network latency average = 21.8465
	minimum = 7
	maximum = 39
Slowest packet = 2819
Flit latency average = 21.8465
	minimum = 7
	maximum = 39
Slowest flit = 2819
Fragmentation average = 0
	minimum = 0
	maximum = 0
Injected packet rate average = 0.07394
	minimum = 0.066 (at node 5)
	maximum = 0.0885 (at node 13)
Accepted packet rate average = 0.07322
	minimum = 0.062 (at node 18)
	maximum = 0.086 (at node 5)
Injected flit rate average = 0.07394
	minimum = 0.066 (at node 5)
	maximum = 0.0885 (at node 13)
Accepted flit rate average= 0.07322
	minimum = 0.062 (at node 18)
	maximum = 0.086 (at node 5)
Injected packet length average = 1
Accepted packet length average = 1
Total in-flight flits = 36 (0 measured)
Buffer busy stall rate = 0.0075
Buffer conflict stall rate = 0.0031
Buffer full stall rate = 0
Buffer reserved stall rate = 0
Crossbar conflict stall rate = 0.00128
latency change    = 0.0149253
throughput change = 0.023764
Class 0:
Packet latency average = 21.6071
	minimum = 7
	maximum = 38
Network latency average = 21.6071
	minimum = 7
	maximum = 38
Slowest packet = 5170
Flit latency average = 21.6071
	minimum = 7
	maximum = 38
Slowest flit = 5170
Fragmentation average = 0
	minimum = 0
	maximum = 0
Injected packet rate average = 0.07264
	minimum = 0.055 (at node 19)
	maximum = 0.087 (at node 21)
Accepted packet rate average = 0.07228
	minimum = 0.052 (at node 9)
	maximum = 0.092 (at node 8)
Injected flit rate average = 0.07264
	minimum = 0.055 (at node 19)
	maximum = 0.087 (at node 21)
Accepted flit rate average= 0.07228
	minimum = 0.052 (at node 9)
	maximum = 0.092 (at node 8)
Injected packet length average = 1
Accepted packet length average = 1
Total in-flight flits = 45 (0 measured)
Buffer busy stall rate = 0.00744
Buffer conflict stall rate = 0.00276
Buffer full stall rate = 0
Buffer reserved stall rate = 0
Crossbar conflict stall rate = 0.00132
latency change    = 0.01108
throughput change = 0.013005
Class 0:
Packet latency average = 21.5973
	minimum = 7
	maximum = 38
Network latency average = 21.5973
	minimum = 7
	maximum = 38
Slowest packet = 5170
Flit latency average = 21.5973
	minimum = 7
	maximum = 38
Slowest flit = 5170
Fragmentation average = 0
	minimum = 0
	maximum = 0
Injected packet rate average = 0.07382
	minimum = 0.057 (at node 19)
	maximum = 0.082 (at node 9)
Accepted packet rate average = 0.0736
	minimum = 0.0585 (at node 9)
	maximum = 0.087 (at node 24)
Injected flit rate average = 0.07382
	minimum = 0.057 (at node 19)
	maximum = 0.082 (at node 9)
Accepted flit rate average= 0.0736
	minimum = 0.0585 (at node 9)
	maximum = 0.087 (at node 24)
Injected packet length average = 1
Accepted packet length average = 1
Total in-flight flits = 47 (0 measured)
Buffer busy stall rate = 0.00708
Buffer conflict stall rate = 0.00302
Buffer full stall rate = 0
Buffer reserved stall rate = 0
Crossbar conflict stall rate = 0.00146
latency change    = 0.000453805
throughput change = 0.0179348
Class 0:
Packet latency average = 21.4869
	minimum = 7
	maximum = 37
Network latency average = 21.4869
	minimum = 7
	maximum = 37
Slowest packet = 8004
Flit latency average = 21.4869
	minimum = 7
	maximum = 37
Slowest flit = 8004
Fragmentation average = 0
	minimum = 0
	maximum = 0
Injected packet rate average = 0.076
	minimum = 0.061 (at node 20)
	maximum = 0.104 (at node 24)
Accepted packet rate average = 0.0764
	minimum = 0.059 (at node 18)
	maximum = 0.092 (at node 21)
Injected flit rate average = 0.076
	minimum = 0.061 (at node 20)
	maximum = 0.104 (at node 24)
Accepted flit rate average= 0.0764
	minimum = 0.059 (at node 18)
	maximum = 0.092 (at node 21)
Injected packet length average = 1
Accepted packet length average = 1
Total in-flight flits = 37 (0 measured)
Buffer busy stall rate = 0.00776
Buffer conflict stall rate = 0.00344
Buffer full stall rate = 0
Buffer reserved stall rate = 0
Crossbar conflict stall rate = 0.00148
latency change    = 0.00513669
throughput change = 0.0366492
Class 0:
Packet latency average = 21.6462
	minimum = 7
	maximum = 38
Network latency average = 21.6462
	minimum = 7
	maximum = 38
Slowest packet = 9882
Flit latency average = 21.6462
	minimum = 7
	maximum = 38
Slowest flit = 9882
Fragmentation average = 0
	minimum = 0
	maximum = 0
Injected packet rate average = 0.07506
	minimum = 0.061 (at node 20)
	maximum = 0.0925 (at node 24)
Accepted packet rate average = 0.07552
	minimum = 0.059 (at node 18)
	maximum = 0.09 (at node 21)
Injected flit rate average = 0.07506
	minimum = 0.061 (at node 20)
	maximum = 0.0925 (at node 24)
Accepted flit rate average= 0.07552
	minimum = 0.059 (at node 18)
	maximum = 0.09 (at node 21)
Injected packet length average = 1
Accepted packet length average = 1
Total in-flight flits = 24 (0 measured)
Buffer busy stall rate = 0.008
Buffer conflict stall rate = 0.00342
Buffer full stall rate = 0
Buffer reserved stall rate = 0
Crossbar conflict stall rate = 0.00152
latency change    = 0.00735813
throughput change = 0.0116525
Class 0:
Packet latency average = 21.5773
	minimum = 7
	maximum = 40
Network latency average = 21.5773
	minimum = 7
	maximum = 40
Slowest packet = 11714
Flit latency average = 21.5773
	minimum = 7
	maximum = 40
Slowest flit = 11714
Fragmentation average = 0
	minimum = 0
	maximum = 0
Injected packet rate average = 0.07276
	minimum = 0.061 (at node 3)
	maximum = 0.093 (at node 13)
Accepted packet rate average = 0.0722
	minimum = 0.061 (at node 6)
	maximum = 0.084 (at node 20)
Injected flit rate average = 0.07276
	minimum = 0.061 (at node 3)
	maximum = 0.093 (at node 13)
Accepted flit rate average= 0.0722
	minimum = 0.061 (at node 6)
	maximum = 0.084 (at node 20)
Injected packet length average = 1
Accepted packet length average = 1
Total in-flight flits = 38 (0 measured)
Buffer busy stall rate = 0.00716
Buffer conflict stall rate = 0.00328
Buffer full stall rate = 0
Buffer reserved stall rate = 0
Crossbar conflict stall rate = 0.00144
latency change    = 0.00319322
throughput change = 0.0459834
Class 0:
Packet latency average = 21.7555
	minimum = 7
	maximum = 40
Network latency average = 21.7555
	minimum = 7
	maximum = 40
Slowest packet = 11714
Flit latency average = 21.7555
	minimum = 7
	maximum = 40
Slowest flit = 11714
Fragmentation average = 0
	minimum = 0
	maximum = 0
Injected packet rate average = 0.07514
	minimum = 0.0655 (at node 4)
	maximum = 0.085 (at node 24)
Accepted packet rate average = 0.07452
	minimum = 0.066 (at node 3)
	maximum = 0.0805 (at node 20)
Injected flit rate average = 0.07514
	minimum = 0.0655 (at node 4)
	maximum = 0.085 (at node 24)
Accepted flit rate average= 0.07452
	minimum = 0.066 (at node 3)
	maximum = 0.0805 (at node 20)
Injected packet length average = 1
Accepted packet length average = 1
Total in-flight flits = 55 (0 measured)
Buffer busy stall rate = 0.00796
Buffer conflict stall rate = 0.0036
Buffer full stall rate = 0
Buffer reserved stall rate = 0
Crossbar conflict stall rate = 0.00188
latency change    = 0.00819179
throughput change = 0.0311326
Class 0:
Packet latency average = 21.7749
	minimum = 7
	maximum = 38
Network latency average = 21.7749
	minimum = 7
	maximum = 38
Slowest packet = 15493
Flit latency average = 21.7749
	minimum = 7
	maximum = 38
Slowest flit = 15493
Fragmentation average = 0
	minimum = 0
	maximum = 0
Injected packet rate average = 0.07552
	minimum = 0.061 (at node 12)
	maximum = 0.091 (at node 10)
Accepted packet rate average = 0.07604
	minimum = 0.062 (at node 5)
	maximum = 0.089 (at node 23)
Injected flit rate average = 0.07552
	minimum = 0.061 (at node 12)
	maximum = 0.091 (at node 10)
Accepted flit rate average= 0.07604
	minimum = 0.062 (at node 5)
	maximum = 0.089 (at node 23)
Injected packet length average = 1
Accepted packet length average = 1
Total in-flight flits = 42 (0 measured)
Buffer busy stall rate = 0.0078
Buffer conflict stall rate = 0.0028
Buffer full stall rate = 0
Buffer reserved stall rate = 0
Crossbar conflict stall rate = 0.0014
latency change    = 0.000888799
throughput change = 0.0199895
Class 0:
Packet latency average = 21.6965
	minimum = 7
	maximum = 38
Network latency average = 21.6965
	minimum = 7
	maximum = 38
Slowest packet = 15493
Flit latency average = 21.6965
	minimum = 7
	maximum = 38
Slowest flit = 15493
Fragmentation average = 0
	minimum = 0
	maximum = 0
Injected packet rate average = 0.07404
	minimum = 0.0605 (at node 12)
	maximum = 0.0825 (at node 24)
Accepted packet rate average = 0.07454
	minimum = 0.0685 (at node 6)
	maximum = 0.0815 (at node 8)
Injected flit rate average = 0.07404
	minimum = 0.0605 (at node 12)
	maximum = 0.0825 (at node 24)
Accepted flit rate average= 0.07454
	minimum = 0.0685 (at node 6)
	maximum = 0.0815 (at node 8)
Injected packet length average = 1
Accepted packet length average = 1
Total in-flight flits = 30 (0 measured)
Buffer busy stall rate = 0.00724
Buffer conflict stall rate = 0.00298
Buffer full stall rate = 0
Buffer reserved stall rate = 0
Crossbar conflict stall rate = 0.0015
latency change    = 0.00360963
throughput change = 0.0201234
Class 0:
Packet latency average = 21.8495
	minimum = 7
	maximum = 37
Network latency average = 21.8495
	minimum = 7
	maximum = 37
Slowest packet = 18756
Flit latency average = 21.8495
	minimum = 7
	maximum = 37
Slowest flit = 18756
Fragmentation average = 0
	minimum = 0
	maximum = 0
Injected packet rate average = 0.07404
	minimum = 0.059 (at node 12)
	maximum = 0.094 (at node 9)
Accepted packet rate average = 0.07388
	minimum = 0.056 (at node 15)
	maximum = 0.089 (at node 19)
Injected flit rate average = 0.07404
	minimum = 0.059 (at node 12)
	maximum = 0.094 (at node 9)
Accepted flit rate average= 0.07388
	minimum = 0.056 (at node 15)
	maximum = 0.089 (at node 19)
Injected packet length average = 1
Accepted packet length average = 1
Total in-flight flits = 34 (0 measured)
Buffer busy stall rate = 0.00704
Buffer conflict stall rate = 0.00324
Buffer full stall rate = 0
Buffer reserved stall rate = 0
Crossbar conflict stall rate = 0.0012
latency change    = 0.00700002
throughput change = 0.00893341
Class 0:
Packet latency average = 21.8562
	minimum = 7
	maximum = 40
Network latency average = 21.8562
	minimum = 7
	maximum = 40
Slowest packet = 21226
Flit latency average = 21.8562
	minimum = 7
	maximum = 40
Slowest flit = 21226
Fragmentation average = 0
	minimum = 0
	maximum = 0
Injected packet rate average = 0.07448
	minimum = 0.066 (at node 0)
	maximum = 0.0895 (at node 8)
Accepted packet rate average = 0.07414
	minimum = 0.0575 (at node 15)
	maximum = 0.0895 (at node 9)
Injected flit rate average = 0.07448
	minimum = 0.066 (at node 0)
	maximum = 0.0895 (at node 8)
Accepted flit rate average= 0.07414
	minimum = 0.0575 (at node 15)
	maximum = 0.0895 (at node 9)
Injected packet length average = 1
Accepted packet length average = 1
Total in-flight flits = 47 (0 measured)
Buffer busy stall rate = 0.00736
Buffer conflict stall rate = 0.00338
Buffer full stall rate = 0
Buffer reserved stall rate = 0
Crossbar conflict stall rate = 0.00138
latency change    = 0.000308027
throughput change = 0.00350688
Class 0:
Packet latency average = 21.6425
	minimum = 7
	maximum = 41
Network latency average = 21.6425
	minimum = 7
	maximum = 41
Slowest packet = 23733
Flit latency average = 21.6425
	minimum = 7
	maximum = 41
Slowest flit = 23733
Fragmentation average = 0
	minimum = 0
	maximum = 0
Injected packet rate average = 0.07568
	minimum = 0.059 (at node 7)
	maximum = 0.086 (at node 20)
Accepted packet rate average = 0.07552
	minimum = 0.061 (at node 7)
	maximum = 0.091 (at node 10)
Injected flit rate average = 0.07568
	minimum = 0.059 (at node 7)
	maximum = 0.086 (at node 20)
Accepted flit rate average= 0.07552
	minimum = 0.061 (at node 7)
	maximum = 0.091 (at node 10)
Injected packet length average = 1
Accepted packet length average = 1
Total in-flight flits = 51 (0 measured)
Buffer busy stall rate = 0.00756
Buffer conflict stall rate = 0.00368
Buffer full stall rate = 0
Buffer reserved stall rate = 0
Crossbar conflict stall rate = 0.00152
latency change    = 0.00987591
throughput change = 0.0182733
Class 0:
Packet latency average = 21.7054
	minimum = 7
	maximum = 41
Network latency average = 21.7054
	minimum = 7
	maximum = 41
Slowest packet = 23733
Flit latency average = 21.7054
	minimum = 7
	maximum = 41
Slowest flit = 23733
Fragmentation average = 0
	minimum = 0
	maximum = 0
Injected packet rate average = 0.0763
	minimum = 0.061 (at node 7)
	maximum = 0.0865 (at node 15)
Accepted packet rate average = 0.0763
	minimum = 0.064 (at node 7)
	maximum = 0.089 (at node 9)
Injected flit rate average = 0.0763
	minimum = 0.061 (at node 7)
	maximum = 0.0865 (at node 15)
Accepted flit rate average= 0.0763
	minimum = 0.064 (at node 7)
	maximum = 0.089 (at node 9)
Injected packet length average = 1
Accepted packet length average = 1
Total in-flight flits = 47 (0 measured)
Buffer busy stall rate = 0.00754
Buffer conflict stall rate = 0.0037
Buffer full stall rate = 0
Buffer reserved stall rate = 0
Crossbar conflict stall rate = 0.00174
latency change    = 0.00289766
throughput change = 0.0102228
Class 0:
Packet latency average = 21.9049
	minimum = 7
	maximum = 38
Network latency average = 21.9049
	minimum = 7
	maximum = 38
Slowest packet = 27165
Flit latency average = 21.9049
	minimum = 7
	maximum = 38
Slowest flit = 27165
Fragmentation average = 0
	minimum = 0
	maximum = 0
Injected packet rate average = 0.07316
	minimum = 0.056 (at node 23)
	maximum = 0.087 (at node 24)
Accepted packet rate average = 0.07364
	minimum = 0.049 (at node 3)
	maximum = 0.096 (at node 11)
Injected flit rate average = 0.07316
	minimum = 0.056 (at node 23)
	maximum = 0.087 (at node 24)
Accepted flit rate average= 0.07364
	minimum = 0.049 (at node 3)
	maximum = 0.096 (at node 11)
Injected packet length average = 1
Accepted packet length average = 1
Total in-flight flits = 35 (0 measured)
Buffer busy stall rate = 0.00688
Buffer conflict stall rate = 0.0028
Buffer full stall rate = 0
Buffer reserved stall rate = 0
Crossbar conflict stall rate = 0.00152
latency change    = 0.0091107
throughput change = 0.0361217
Class 0:
Packet latency average = 21.8185
	minimum = 7
	maximum = 38
Network latency average = 21.8185
	minimum = 7
	maximum = 38
Slowest packet = 27165
Flit latency average = 21.8185
	minimum = 7
	maximum = 38
Slowest flit = 27165
Fragmentation average = 0
	minimum = 0
	maximum = 0
Injected packet rate average = 0.0741
	minimum = 0.0635 (at node 23)
	maximum = 0.0865 (at node 22)
Accepted packet rate average = 0.07392
	minimum = 0.059 (at node 15)
	maximum = 0.0825 (at node 14)
Injected flit rate average = 0.0741
	minimum = 0.0635 (at node 23)
	maximum = 0.0865 (at node 22)
Accepted flit rate average= 0.07392
	minimum = 0.059 (at node 15)
	maximum = 0.0825 (at node 14)
Injected packet length average = 1
Accepted packet length average = 1
Total in-flight flits = 56 (0 measured)
Buffer busy stall rate = 0.00702
Buffer conflict stall rate = 0.00278
Buffer full stall rate = 0
Buffer reserved stall rate = 0
Crossbar conflict stall rate = 0.00142
latency change    = 0.0039641
throughput change = 0.00378788
Class 0:
Packet latency average = 21.8966
	minimum = 7
	maximum = 37
Network latency average = 21.8966
	minimum = 7
	maximum = 37
Slowest packet = 31559
Flit latency average = 21.8966
	minimum = 7
	maximum = 37
Slowest flit = 31559
Fragmentation average = 0
	minimum = 0
	maximum = 0
Injected packet rate average = 0.07308
	minimum = 0.047 (at node 0)
	maximum = 0.095 (at node 22)
Accepted packet rate average = 0.07392
	minimum = 0.062 (at node 7)
	maximum = 0.092 (at node 19)
Injected flit rate average = 0.07308
	minimum = 0.047 (at node 0)
	maximum = 0.095 (at node 22)
Accepted flit rate average= 0.07392
	minimum = 0.062 (at node 7)
	maximum = 0.092 (at node 19)
Injected packet length average = 1
Accepted packet length average = 1
Total in-flight flits = 35 (0 measured)
Buffer busy stall rate = 0.00784
Buffer conflict stall rate = 0.00324
Buffer full stall rate = 0
Buffer reserved stall rate = 0
Crossbar conflict stall rate = 0.00144
latency change    = 0.00357099
throughput change = 0
Class 0:
Packet latency average = 21.8705
	minimum = 7
	maximum = 39
Network latency average = 21.8705
	minimum = 7
	maximum = 39
Slowest packet = 32466
Flit latency average = 21.8705
	minimum = 7
	maximum = 39
Slowest flit = 32466
Fragmentation average = 0
	minimum = 0
	maximum = 0
Injected packet rate average = 0.07254
	minimum = 0.0575 (at node 0)
	maximum = 0.0805 (at node 22)
Accepted packet rate average = 0.07292
	minimum = 0.064 (at node 16)
	maximum = 0.0895 (at node 19)
Injected flit rate average = 0.07254
	minimum = 0.0575 (at node 0)
	maximum = 0.0805 (at node 22)
Accepted flit rate average= 0.07292
	minimum = 0.064 (at node 16)
	maximum = 0.0895 (at node 19)
Injected packet length average = 1
Accepted packet length average = 1
Total in-flight flits = 37 (0 measured)
Buffer busy stall rate = 0.00772
Buffer conflict stall rate = 0.00334
Buffer full stall rate = 0
Buffer reserved stall rate = 0
Crossbar conflict stall rate = 0.00138
latency change    = 0.00119348
throughput change = 0.0137137
Class 0:
Packet latency average = 21.884
	minimum = 7
	maximum = 37
Network latency average = 21.884
	minimum = 7
	maximum = 37
Slowest packet = 34703
Flit latency average = 21.884
	minimum = 7
	maximum = 37
Slowest flit = 34703
Fragmentation average = 0
	minimum = 0
	maximum = 0
Injected packet rate average = 0.07444
	minimum = 0.057 (at node 9)
	maximum = 0.091 (at node 21)
Accepted packet rate average = 0.07448
	minimum = 0.059 (at node 0)
	maximum = 0.085 (at node 16)
Injected flit rate average = 0.07444
	minimum = 0.057 (at node 9)
	maximum = 0.091 (at node 21)
Accepted flit rate average= 0.07448
	minimum = 0.059 (at node 0)
	maximum = 0.085 (at node 16)
Injected packet length average = 1
Accepted packet length average = 1
Total in-flight flits = 36 (0 measured)
Buffer busy stall rate = 0.00748
Buffer conflict stall rate = 0.00352
Buffer full stall rate = 0
Buffer reserved stall rate = 0
Crossbar conflict stall rate = 0.00144
latency change    = 0.000614725
throughput change = 0.0209452
Class 0:
Packet latency average = 21.8424
	minimum = 7
	maximum = 38
Network latency average = 21.8424
	minimum = 7
	maximum = 38
Slowest packet = 36188
Flit latency average = 21.8424
	minimum = 7
	maximum = 38
Slowest flit = 36188
Fragmentation average = 0
	minimum = 0
	maximum = 0
Injected packet rate average = 0.07508
	minimum = 0.0665 (at node 6)
	maximum = 0.0895 (at node 1)
Accepted packet rate average = 0.07498
	minimum = 0.061 (at node 5)
	maximum = 0.0845 (at node 7)
Injected flit rate average = 0.07508
	minimum = 0.0665 (at node 6)
	maximum = 0.0895 (at node 1)
Accepted flit rate average= 0.07498
	minimum = 0.061 (at node 5)
	maximum = 0.0845 (at node 7)
Injected packet length average = 1
Accepted packet length average = 1
Total in-flight flits = 42 (0 measured)
Buffer busy stall rate = 0.00802
Buffer conflict stall rate = 0.00368
Buffer full stall rate = 0
Buffer reserved stall rate = 0
Crossbar conflict stall rate = 0.00156
latency change    = 0.00190628
throughput change = 0.00666844
Class 0:
Packet latency average = 21.8682
	minimum = 7
	maximum = 37
Network latency average = 21.8682
	minimum = 7
	maximum = 37
Slowest packet = 37470
Flit latency average = 21.8682
	minimum = 7
	maximum = 37
Slowest flit = 37470
Fragmentation average = 0
	minimum = 0
	maximum = 0
Injected packet rate average = 0.07584
	minimum = 0.06 (at node 5)
	maximum = 0.091 (at node 2)
Accepted packet rate average = 0.0762
	minimum = 0.058 (at node 0)
	maximum = 0.093 (at node 8)
Injected flit rate average = 0.07584
	minimum = 0.06 (at node 5)
	maximum = 0.091 (at node 2)
Accepted flit rate average= 0.0762
	minimum = 0.058 (at node 0)
	maximum = 0.093 (at node 8)
Injected packet length average = 1
Accepted packet length average = 1
Total in-flight flits = 33 (0 measured)
Buffer busy stall rate = 0.00764
Buffer conflict stall rate = 0.00316
Buffer full stall rate = 0
Buffer reserved stall rate = 0
Crossbar conflict stall rate = 0.00164
latency change    = 0.00118361
throughput change = 0.0160105
Class 0:
Packet latency average = 21.7859
	minimum = 7
	maximum = 37
Network latency average = 21.7859
	minimum = 7
	maximum = 37
Slowest packet = 37470
Flit latency average = 21.7859
	minimum = 7
	maximum = 37
Slowest flit = 37470
Fragmentation average = 0
	minimum = 0
	maximum = 0
Injected packet rate average = 0.07552
	minimum = 0.064 (at node 5)
	maximum = 0.09 (at node 4)
Accepted packet rate average = 0.07558
	minimum = 0.061 (at node 19)
	maximum = 0.0925 (at node 8)
Injected flit rate average = 0.07552
	minimum = 0.064 (at node 5)
	maximum = 0.09 (at node 4)
Accepted flit rate average= 0.07558
	minimum = 0.061 (at node 19)
	maximum = 0.0925 (at node 8)
Injected packet length average = 1
Accepted packet length average = 1
Total in-flight flits = 39 (0 measured)
Buffer busy stall rate = 0.00742
Buffer conflict stall rate = 0.003
Buffer full stall rate = 0
Buffer reserved stall rate = 0
Crossbar conflict stall rate = 0.00168
latency change    = 0.00377855
throughput change = 0.00820323
Class 0:
Packet latency average = 21.6667
	minimum = 7
	maximum = 38
Network latency average = 21.6667
	minimum = 7
	maximum = 38
Slowest packet = 41073
Flit latency average = 21.6667
	minimum = 7
	maximum = 38
Slowest flit = 41073
Fragmentation average = 0
	minimum = 0
	maximum = 0
Injected packet rate average = 0.07624
	minimum = 0.061 (at node 0)
	maximum = 0.096 (at node 15)
Accepted packet rate average = 0.07608
	minimum = 0.055 (at node 6)
	maximum = 0.09 (at node 19)
Injected flit rate average = 0.07624
	minimum = 0.061 (at node 0)
	maximum = 0.096 (at node 15)
Accepted flit rate average= 0.07608
	minimum = 0.055 (at node 6)
	maximum = 0.09 (at node 19)
Injected packet length average = 1
Accepted packet length average = 1
Total in-flight flits = 43 (0 measured)
Buffer busy stall rate = 0.00808
Buffer conflict stall rate = 0.00348
Buffer full stall rate = 0
Buffer reserved stall rate = 0
Crossbar conflict stall rate = 0.00148
latency change    = 0.0055041
throughput change = 0.00657203
Class 0:
Packet latency average = 21.8393
	minimum = 7
	maximum = 38
Network latency average = 21.8393
	minimum = 7
	maximum = 38
Slowest packet = 41073
Flit latency average = 21.8393
	minimum = 7
	maximum = 38
Slowest flit = 41073
Fragmentation average = 0
	minimum = 0
	maximum = 0
Injected packet rate average = 0.07548
	minimum = 0.0595 (at node 21)
	maximum = 0.092 (at node 15)
Accepted packet rate average = 0.07542
	minimum = 0.06 (at node 6)
	maximum = 0.086 (at node 10)
Injected flit rate average = 0.07548
	minimum = 0.0595 (at node 21)
	maximum = 0.092 (at node 15)
Accepted flit rate average= 0.07542
	minimum = 0.06 (at node 6)
	maximum = 0.086 (at node 10)
Injected packet length average = 1
Accepted packet length average = 1
Total in-flight flits = 42 (0 measured)
Buffer busy stall rate = 0.00816
Buffer conflict stall rate = 0.00356
Buffer full stall rate = 0
Buffer reserved stall rate = 0
Crossbar conflict stall rate = 0.00154
latency change    = 0.00790471
throughput change = 0.00875099
Class 0:
Packet latency average = 21.7414
	minimum = 7
	maximum = 36
Network latency average = 21.7414
	minimum = 7
	maximum = 36
Slowest packet = 45640
Flit latency average = 21.7414
	minimum = 7
	maximum = 36
Slowest flit = 45640
Fragmentation average = 0
	minimum = 0
	maximum = 0
Injected packet rate average = 0.0762
	minimum = 0.056 (at node 19)
	maximum = 0.091 (at node 16)
Accepted packet rate average = 0.0764
	minimum = 0.061 (at node 21)
	maximum = 0.105 (at node 20)
Injected flit rate average = 0.0762
	minimum = 0.056 (at node 19)
	maximum = 0.091 (at node 16)
Accepted flit rate average= 0.0764
	minimum = 0.061 (at node 21)
	maximum = 0.105 (at node 20)
Injected packet length average = 1
Accepted packet length average = 1
Total in-flight flits = 37 (0 measured)
Buffer busy stall rate = 0.00808
Buffer conflict stall rate = 0.0044
Buffer full stall rate = 0
Buffer reserved stall rate = 0
Crossbar conflict stall rate = 0.00132
latency change    = 0.00450472
throughput change = 0.0128272
Class 0:
Packet latency average = 21.8711
	minimum = 7
	maximum = 41
Network latency average = 21.8711
	minimum = 7
	maximum = 41
Slowest packet = 47943
Flit latency average = 21.8711
	minimum = 7
	maximum = 41
Slowest flit = 47943
Fragmentation average = 0
	minimum = 0
	maximum = 0
Injected packet rate average = 0.07578
	minimum = 0.0675 (at node 13)
	maximum = 0.087 (at node 8)
Accepted packet rate average = 0.0757
	minimum = 0.0635 (at node 21)
	maximum = 0.089 (at node 20)
Injected flit rate average = 0.07578
	minimum = 0.0675 (at node 13)
	maximum = 0.087 (at node 8)
Accepted flit rate average= 0.0757
	minimum = 0.0635 (at node 21)
	maximum = 0.089 (at node 20)
Injected packet length average = 1
Accepted packet length average = 1
Total in-flight flits = 46 (0 measured)
Buffer busy stall rate = 0.00812
Buffer conflict stall rate = 0.0038
Buffer full stall rate = 0
Buffer reserved stall rate = 0
Crossbar conflict stall rate = 0.00144
latency change    = 0.00593061
throughput change = 0.00924703
Class 0:
Packet latency average = 21.5966
	minimum = 7
	maximum = 40
Network latency average = 21.5966
	minimum = 7
	maximum = 40
Slowest packet = 49175
Flit latency average = 21.5966
	minimum = 7
	maximum = 40
Slowest flit = 49175
Fragmentation average = 0
	minimum = 0
	maximum = 0
Injected packet rate average = 0.07576
	minimum = 0.063 (at node 21)
	maximum = 0.087 (at node 3)
Accepted packet rate average = 0.07616
	minimum = 0.053 (at node 17)
	maximum = 0.093 (at node 21)
Injected flit rate average = 0.07576
	minimum = 0.063 (at node 21)
	maximum = 0.087 (at node 3)
Accepted flit rate average= 0.07616
	minimum = 0.053 (at node 17)
	maximum = 0.093 (at node 21)
Injected packet length average = 1
Accepted packet length average = 1
Total in-flight flits = 36 (0 measured)
Buffer busy stall rate = 0.0078
Buffer conflict stall rate = 0.00316
Buffer full stall rate = 0
Buffer reserved stall rate = 0
Crossbar conflict stall rate = 0.00116
latency change    = 0.0127071
throughput change = 0.00603992
Class 0:
Packet latency average = 21.7991
	minimum = 7
	maximum = 40
Network latency average = 21.7991
	minimum = 7
	maximum = 40
Slowest packet = 49175
Flit latency average = 21.7991
	minimum = 7
	maximum = 40
Slowest flit = 49175
Fragmentation average = 0
	minimum = 0
	maximum = 0
Injected packet rate average = 0.07594
	minimum = 0.066 (at node 0)
	maximum = 0.084 (at node 3)
Accepted packet rate average = 0.07624
	minimum = 0.065 (at node 3)
	maximum = 0.089 (at node 21)
Injected flit rate average = 0.07594
	minimum = 0.066 (at node 0)
	maximum = 0.084 (at node 3)
Accepted flit rate average= 0.07624
	minimum = 0.065 (at node 3)
	maximum = 0.089 (at node 21)
Injected packet length average = 1
Accepted packet length average = 1
Total in-flight flits = 31 (0 measured)
Buffer busy stall rate = 0.00798
Buffer conflict stall rate = 0.0036
Buffer full stall rate = 0
Buffer reserved stall rate = 0
Crossbar conflict stall rate = 0.0014
latency change    = 0.00928558
throughput change = 0.00104932
Class 0:
Packet latency average = 21.7241
	minimum = 7
	maximum = 38
Network latency average = 21.7241
	minimum = 7
	maximum = 38
Slowest packet = 54009
Flit latency average = 21.7241
	minimum = 7
	maximum = 38
Slowest flit = 54009
Fragmentation average = 0
	minimum = 0
	maximum = 0
Injected packet rate average = 0.07364
	minimum = 0.057 (at node 2)
	maximum = 0.086 (at node 6)
Accepted packet rate average = 0.07292
	minimum = 0.049 (at node 20)
	maximum = 0.093 (at node 18)
Injected flit rate average = 0.07364
	minimum = 0.057 (at node 2)
	maximum = 0.086 (at node 6)
Accepted flit rate average= 0.07292
	minimum = 0.049 (at node 20)
	maximum = 0.093 (at node 18)
Injected packet length average = 1
Accepted packet length average = 1
Total in-flight flits = 49 (0 measured)
Buffer busy stall rate = 0.00752
Buffer conflict stall rate = 0.00336
Buffer full stall rate = 0
Buffer reserved stall rate = 0
Crossbar conflict stall rate = 0.00148
latency change    = 0.00345121
throughput change = 0.0455293
Class 0:
Packet latency average = 21.5836
	minimum = 7
	maximum = 40
Network latency average = 21.5836
	minimum = 7
	maximum = 40
Slowest packet = 54133
Flit latency average = 21.5836
	minimum = 7
	maximum = 40
Slowest flit = 54133
Fragmentation average = 0
	minimum = 0
	maximum = 0
Injected packet rate average = 0.07602
	minimum = 0.063 (at node 4)
	maximum = 0.0855 (at node 17)
Accepted packet rate average = 0.07588
	minimum = 0.0635 (at node 0)
	maximum = 0.09 (at node 18)
Injected flit rate average = 0.07602
	minimum = 0.063 (at node 4)
	maximum = 0.0855 (at node 17)
Accepted flit rate average= 0.07588
	minimum = 0.0635 (at node 0)
	maximum = 0.09 (at node 18)
Injected packet length average = 1
Accepted packet length average = 1
Total in-flight flits = 38 (0 measured)
Buffer busy stall rate = 0.00744
Buffer conflict stall rate = 0.00372
Buffer full stall rate = 0
Buffer reserved stall rate = 0
Crossbar conflict stall rate = 0.00148
latency change    = 0.00651089
throughput change = 0.039009
Class 0:
Packet latency average = 21.7082
	minimum = 7
	maximum = 37
Network latency average = 21.7082
	minimum = 7
	maximum = 37
Slowest packet = 56552
Flit latency average = 21.7082
	minimum = 7
	maximum = 37
Slowest flit = 56552
Fragmentation average = 0
	minimum = 0
	maximum = 0
Injected packet rate average = 0.076
	minimum = 0.059 (at node 24)
	maximum = 0.098 (at node 4)
Accepted packet rate average = 0.0758
	minimum = 0.066 (at node 9)
	maximum = 0.085 (at node 6)
Injected flit rate average = 0.076
	minimum = 0.059 (at node 24)
	maximum = 0.098 (at node 4)
Accepted flit rate average= 0.0758
	minimum = 0.066 (at node 9)
	maximum = 0.085 (at node 6)
Injected packet length average = 1
Accepted packet length average = 1
Total in-flight flits = 43 (0 measured)
Buffer busy stall rate = 0.00736
Buffer conflict stall rate = 0.00288
Buffer full stall rate = 0
Buffer reserved stall rate = 0
Crossbar conflict stall rate = 0.00136
latency change    = 0.00574099
throughput change = 0.00105541
Class 0:
Packet latency average = 21.8329
	minimum = 7
	maximum = 38
Network latency average = 21.8329
	minimum = 7
	maximum = 38
Slowest packet = 58721
Flit latency average = 21.8329
	minimum = 7
	maximum = 38
Slowest flit = 58721
Fragmentation average = 0
	minimum = 0
	maximum = 0
Injected packet rate average = 0.075
	minimum = 0.066 (at node 6)
	maximum = 0.0845 (at node 4)
Accepted packet rate average = 0.07506
	minimum = 0.067 (at node 15)
	maximum = 0.082 (at node 23)
Injected flit rate average = 0.075
	minimum = 0.066 (at node 6)
	maximum = 0.0845 (at node 4)
Accepted flit rate average= 0.07506
	minimum = 0.067 (at node 15)
	maximum = 0.082 (at node 23)
Injected packet length average = 1
Accepted packet length average = 1
Total in-flight flits = 35 (0 measured)
Buffer busy stall rate = 0.00738
Buffer conflict stall rate = 0.00312
Buffer full stall rate = 0
Buffer reserved stall rate = 0
Crossbar conflict stall rate = 0.00136
latency change    = 0.00571404
throughput change = 0.00985878
Class 0:
Packet latency average = 21.642
	minimum = 7
	maximum = 36
Network latency average = 21.642
	minimum = 7
	maximum = 36
Slowest packet = 60214
Flit latency average = 21.642
	minimum = 7
	maximum = 36
Slowest flit = 60214
Fragmentation average = 0
	minimum = 0
	maximum = 0
Injected packet rate average = 0.07464
	minimum = 0.061 (at node 6)
	maximum = 0.093 (at node 15)
Accepted packet rate average = 0.0742
	minimum = 0.062 (at node 21)
	maximum = 0.091 (at node 16)
Injected flit rate average = 0.07464
	minimum = 0.061 (at node 6)
	maximum = 0.093 (at node 15)
Accepted flit rate average= 0.0742
	minimum = 0.062 (at node 21)
	maximum = 0.091 (at node 16)
Injected packet length average = 1
Accepted packet length average = 1
Total in-flight flits = 46 (0 measured)
Buffer busy stall rate = 0.00724
Buffer conflict stall rate = 0.00284
Buffer full stall rate = 0
Buffer reserved stall rate = 0
Crossbar conflict stall rate = 0.00108
latency change    = 0.0088201
throughput change = 0.0115903
Class 0:
Packet latency average = 21.827
	minimum = 7
	maximum = 37
Network latency average = 21.827
	minimum = 7
	maximum = 37
Slowest packet = 61706
Flit latency average = 21.827
	minimum = 7
	maximum = 37
Slowest flit = 61706
Fragmentation average = 0
	minimum = 0
	maximum = 0
Injected packet rate average = 0.07574
	minimum = 0.0615 (at node 3)
	maximum = 0.084 (at node 7)
Accepted packet rate average = 0.07572
	minimum = 0.0635 (at node 7)
	maximum = 0.087 (at node 5)
Injected flit rate average = 0.07574
	minimum = 0.0615 (at node 3)
	maximum = 0.084 (at node 7)
Accepted flit rate average= 0.07572
	minimum = 0.0635 (at node 7)
	maximum = 0.087 (at node 5)
Injected packet length average = 1
Accepted packet length average = 1
Total in-flight flits = 36 (0 measured)
Buffer busy stall rate = 0.00796
Buffer conflict stall rate = 0.00318
Buffer full stall rate = 0
Buffer reserved stall rate = 0
Crossbar conflict stall rate = 0.00146
latency change    = 0.00847325
throughput change = 0.020074
Class 0:
Packet latency average = 21.7472
	minimum = 7
	maximum = 42
Network latency average = 21.7472
	minimum = 7
	maximum = 42
Slowest packet = 65211
Flit latency average = 21.7472
	minimum = 7
	maximum = 42
Slowest flit = 65211
Fragmentation average = 0
	minimum = 0
	maximum = 0
Injected packet rate average = 0.07524
	minimum = 0.055 (at node 6)
	maximum = 0.092 (at node 10)
Accepted packet rate average = 0.07516
	minimum = 0.059 (at node 1)
	maximum = 0.09 (at node 7)
Injected flit rate average = 0.07524
	minimum = 0.055 (at node 6)
	maximum = 0.092 (at node 10)
Accepted flit rate average= 0.07516
	minimum = 0.059 (at node 1)
	maximum = 0.09 (at node 7)
Injected packet length average = 1
Accepted packet length average = 1
Total in-flight flits = 38 (0 measured)
Buffer busy stall rate = 0.00712
Buffer conflict stall rate = 0.00336
Buffer full stall rate = 0
Buffer reserved stall rate = 0
Crossbar conflict stall rate = 0.0016
latency change    = 0.0036689
throughput change = 0.00745077
Class 0:
Packet latency average = 21.7064
	minimum = 7
	maximum = 42
Network latency average = 21.7064
	minimum = 7
	maximum = 42
Slowest packet = 65211
Flit latency average = 21.7064
	minimum = 7
	maximum = 42
Slowest flit = 65211
Fragmentation average = 0
	minimum = 0
	maximum = 0
Injected packet rate average = 0.07584
	minimum = 0.0635 (at node 0)
	maximum = 0.089 (at node 10)
Accepted packet rate average = 0.07568
	minimum = 0.0645 (at node 6)
	maximum = 0.0885 (at node 13)
Injected flit rate average = 0.07584
	minimum = 0.0635 (at node 0)
	maximum = 0.089 (at node 10)
Accepted flit rate average= 0.07568
	minimum = 0.0645 (at node 6)
	maximum = 0.0885 (at node 13)
Injected packet length average = 1
Accepted packet length average = 1
Total in-flight flits = 44 (0 measured)
Buffer busy stall rate = 0.00736
Buffer conflict stall rate = 0.00364
Buffer full stall rate = 0
Buffer reserved stall rate = 0
Crossbar conflict stall rate = 0.00164
latency change    = 0.00188012
throughput change = 0.00687104
Class 0:
Packet latency average = 21.8028
	minimum = 7
	maximum = 38
Network latency average = 21.8028
	minimum = 7
	maximum = 38
Slowest packet = 69014
Flit latency average = 21.8028
	minimum = 7
	maximum = 38
Slowest flit = 69014
Fragmentation average = 0
	minimum = 0
	maximum = 0
Injected packet rate average = 0.0732
	minimum = 0.053 (at node 18)
	maximum = 0.095 (at node 22)
Accepted packet rate average = 0.07304
	minimum = 0.062 (at node 14)
	maximum = 0.084 (at node 0)
Injected flit rate average = 0.0732
	minimum = 0.053 (at node 18)
	maximum = 0.095 (at node 22)
Accepted flit rate average= 0.07304
	minimum = 0.062 (at node 14)
	maximum = 0.084 (at node 0)
Injected packet length average = 1
Accepted packet length average = 1
Total in-flight flits = 48 (0 measured)
Buffer busy stall rate = 0.00756
Buffer conflict stall rate = 0.00312
Buffer full stall rate = 0
Buffer reserved stall rate = 0
Crossbar conflict stall rate = 0.00168
latency change    = 0.00442384
throughput change = 0.0361446
Class 0:
Packet latency average = 21.8032
	minimum = 7
	maximum = 38
Network latency average = 21.8032
	minimum = 7
	maximum = 38
Slowest packet = 69014
Flit latency average = 21.8032
	minimum = 7
	maximum = 38
Slowest flit = 69014
Fragmentation average = 0
	minimum = 0
	maximum = 0
Injected packet rate average = 0.07376
	minimum = 0.065 (at node 18)
	maximum = 0.086 (at node 22)
Accepted packet rate average = 0.07388
	minimum = 0.0645 (at node 3)
	maximum = 0.0835 (at node 21)
Injected flit rate average = 0.07376
	minimum = 0.065 (at node 18)
	maximum = 0.086 (at node 22)
Accepted flit rate average= 0.07388
	minimum = 0.0645 (at node 3)
	maximum = 0.0835 (at node 21)
Injected packet length average = 1
Accepted packet length average = 1
Total in-flight flits = 38 (0 measured)
Buffer busy stall rate = 0.00766
Buffer conflict stall rate = 0.00304
Buffer full stall rate = 0
Buffer reserved stall rate = 0
Crossbar conflict stall rate = 0.0016
latency change    = 1.58974e-05
throughput change = 0.0113698
Class 0:
Packet latency average = 21.4989
	minimum = 7
	maximum = 36
Network latency average = 21.4989
	minimum = 7
	maximum = 36
Slowest packet = 72840
Flit latency average = 21.4989
	minimum = 7
	maximum = 36
Slowest flit = 72840
Fragmentation average = 0
	minimum = 0
	maximum = 0
Injected packet rate average = 0.07436
	minimum = 0.057 (at node 8)
	maximum = 0.098 (at node 12)
Accepted packet rate average = 0.07384
	minimum = 0.059 (at node 12)
	maximum = 0.094 (at node 1)
Injected flit rate average = 0.07436
	minimum = 0.057 (at node 8)
	maximum = 0.098 (at node 12)
Accepted flit rate average= 0.07384
	minimum = 0.059 (at node 12)
	maximum = 0.094 (at node 1)
Injected packet length average = 1
Accepted packet length average = 1
Total in-flight flits = 51 (0 measured)
Buffer busy stall rate = 0.00652
Buffer conflict stall rate = 0.00272
Buffer full stall rate = 0
Buffer reserved stall rate = 0
Crossbar conflict stall rate = 0.00172
latency change    = 0.0141532
throughput change = 0.000541712
Class 0:
Packet latency average = 21.6703
	minimum = 7
	maximum = 41
Network latency average = 21.6703
	minimum = 7
	maximum = 41
Slowest packet = 74683
Flit latency average = 21.6703
	minimum = 7
	maximum = 41
Slowest flit = 74683
Fragmentation average = 0
	minimum = 0
	maximum = 0
Injected packet rate average = 0.07486
	minimum = 0.062 (at node 13)
	maximum = 0.0885 (at node 12)
Accepted packet rate average = 0.07498
	minimum = 0.06 (at node 20)
	maximum = 0.0905 (at node 1)
Injected flit rate average = 0.07486
	minimum = 0.062 (at node 13)
	maximum = 0.0885 (at node 12)
Accepted flit rate average= 0.07498
	minimum = 0.06 (at node 20)
	maximum = 0.0905 (at node 1)
Injected packet length average = 1
Accepted packet length average = 1
Total in-flight flits = 32 (0 measured)
Buffer busy stall rate = 0.00688
Buffer conflict stall rate = 0.00282
Buffer full stall rate = 0
Buffer reserved stall rate = 0
Crossbar conflict stall rate = 0.00182
latency change    = 0.00790923
throughput change = 0.0152041
Class 0:
Packet latency average = 21.7887
	minimum = 7
	maximum = 38
Network latency average = 21.7887
	minimum = 7
	maximum = 38
Slowest packet = 75700
Flit latency average = 21.7887
	minimum = 7
	maximum = 38
Slowest flit = 75700
Fragmentation average = 0
	minimum = 0
	maximum = 0
Injected packet rate average = 0.07556
	minimum = 0.063 (at node 13)
	maximum = 0.095 (at node 5)
Accepted packet rate average = 0.07496
	minimum = 0.063 (at node 12)
	maximum = 0.1 (at node 6)
Injected flit rate average = 0.07556
	minimum = 0.063 (at node 13)
	maximum = 0.095 (at node 5)
Accepted flit rate average= 0.07496
	minimum = 0.063 (at node 12)
	maximum = 0.1 (at node 6)
Injected packet length average = 1
Accepted packet length average = 1
Total in-flight flits = 47 (0 measured)
Buffer busy stall rate = 0.00784
Buffer conflict stall rate = 0.00352
Buffer full stall rate = 0
Buffer reserved stall rate = 0
Crossbar conflict stall rate = 0.00188
latency change    = 0.00543288
throughput change = 0.000266809
Class 0:
Packet latency average = 21.805
	minimum = 7
	maximum = 39
Network latency average = 21.805
	minimum = 7
	maximum = 39
Slowest packet = 78128
Flit latency average = 21.805
	minimum = 7
	maximum = 39
Slowest flit = 78128
Fragmentation average = 0
	minimum = 0
	maximum = 0
Injected packet rate average = 0.0739
	minimum = 0.062 (at node 14)
	maximum = 0.084 (at node 15)
Accepted packet rate average = 0.07376
	minimum = 0.0665 (at node 15)
	maximum = 0.085 (at node 6)
Injected flit rate average = 0.0739
	minimum = 0.062 (at node 14)
	maximum = 0.084 (at node 15)
Accepted flit rate average= 0.07376
	minimum = 0.0665 (at node 15)
	maximum = 0.085 (at node 6)
Injected packet length average = 1
Accepted packet length average = 1
Total in-flight flits = 39 (0 measured)
Buffer busy stall rate = 0.0076
Buffer conflict stall rate = 0.0033
Buffer full stall rate = 0
Buffer reserved stall rate = 0
Crossbar conflict stall rate = 0.00152
latency change    = 0.000750106
throughput change = 0.016269
Class 0:
Packet latency average = 22.057
	minimum = 7
	maximum = 37
Network latency average = 22.057
	minimum = 7
	maximum = 37
Slowest packet = 80006
Flit latency average = 22.057
	minimum = 7
	maximum = 37
Slowest flit = 80006
Fragmentation average = 0
	minimum = 0
	maximum = 0
Injected packet rate average = 0.07696
	minimum = 0.063 (at node 19)
	maximum = 0.094 (at node 16)
Accepted packet rate average = 0.07648
	minimum = 0.063 (at node 16)
	maximum = 0.097 (at node 0)
Injected flit rate average = 0.07696
	minimum = 0.063 (at node 19)
	maximum = 0.094 (at node 16)
Accepted flit rate average= 0.07648
	minimum = 0.063 (at node 16)
	maximum = 0.097 (at node 0)
Injected packet length average = 1
Accepted packet length average = 1
Total in-flight flits = 51 (0 measured)
Buffer busy stall rate = 0.00772
Buffer conflict stall rate = 0.00352
Buffer full stall rate = 0
Buffer reserved stall rate = 0
Crossbar conflict stall rate = 0.00172
latency change    = 0.0114234
throughput change = 0.0355649
Class 0:
Packet latency average = 21.8929
	minimum = 7
	maximum = 38
Network latency average = 21.8929
	minimum = 7
	maximum = 38
Slowest packet = 81886
Flit latency average = 21.8929
	minimum = 7
	maximum = 38
Slowest flit = 81886
Fragmentation average = 0
	minimum = 0
	maximum = 0
Injected packet rate average = 0.07674
	minimum = 0.067 (at node 19)
	maximum = 0.087 (at node 17)
Accepted packet rate average = 0.07658
	minimum = 0.0635 (at node 16)
	maximum = 0.089 (at node 23)
Injected flit rate average = 0.07674
	minimum = 0.067 (at node 19)
	maximum = 0.087 (at node 17)
Accepted flit rate average= 0.07658
	minimum = 0.0635 (at node 16)
	maximum = 0.089 (at node 23)
Injected packet length average = 1
Accepted packet length average = 1
Total in-flight flits = 47 (0 measured)
Buffer busy stall rate = 0.00784
Buffer conflict stall rate = 0.00336
Buffer full stall rate = 0
Buffer reserved stall rate = 0
Crossbar conflict stall rate = 0.00154
latency change    = 0.00749493
throughput change = 0.00130582
Class 0:
Packet latency average = 21.731
	minimum = 7
	maximum = 40
Network latency average = 21.731
	minimum = 7
	maximum = 40
Slowest packet = 83726
Flit latency average = 21.731
	minimum = 7
	maximum = 40
Slowest flit = 83726
Fragmentation average = 0
	minimum = 0
	maximum = 0
Injected packet rate average = 0.07572
	minimum = 0.057 (at node 10)
	maximum = 0.09 (at node 19)
Accepted packet rate average = 0.07612
	minimum = 0.06 (at node 3)
	maximum = 0.091 (at node 15)
Injected flit rate average = 0.07572
	minimum = 0.057 (at node 10)
	maximum = 0.09 (at node 19)
Accepted flit rate average= 0.07612
	minimum = 0.06 (at node 3)
	maximum = 0.091 (at node 15)
Injected packet length average = 1
Accepted packet length average = 1
Total in-flight flits = 37 (0 measured)
Buffer busy stall rate = 0.00832
Buffer conflict stall rate = 0.00392
Buffer full stall rate = 0
Buffer reserved stall rate = 0
Crossbar conflict stall rate = 0.00172
latency change    = 0.00745348
throughput change = 0.00604309
Class 0:
Packet latency average = 21.7798
	minimum = 7
	maximum = 40
Network latency average = 21.7798
	minimum = 7
	maximum = 40
Slowest packet = 83726
Flit latency average = 21.7798
	minimum = 7
	maximum = 40
Slowest flit = 83726
Fragmentation average = 0
	minimum = 0
	maximum = 0
Injected packet rate average = 0.07548
	minimum = 0.064 (at node 16)
	maximum = 0.0825 (at node 9)
Accepted packet rate average = 0.07558
	minimum = 0.0675 (at node 17)
	maximum = 0.088 (at node 22)
Injected flit rate average = 0.07548
	minimum = 0.064 (at node 16)
	maximum = 0.0825 (at node 9)
Accepted flit rate average= 0.07558
	minimum = 0.0675 (at node 17)
	maximum = 0.088 (at node 22)
Injected packet length average = 1
Accepted packet length average = 1
Total in-flight flits = 42 (0 measured)
Buffer busy stall rate = 0.0078
Buffer conflict stall rate = 0.00396
Buffer full stall rate = 0
Buffer reserved stall rate = 0
Crossbar conflict stall rate = 0.00156
latency change    = 0.0022445
throughput change = 0.00714475
Class 0:
Packet latency average = 22.1858
	minimum = 7
	maximum = 44
Network latency average = 22.1858
	minimum = 7
	maximum = 44
Slowest packet = 87027
Flit latency average = 22.1858
	minimum = 7
	maximum = 44
Slowest flit = 87027
Fragmentation average = 0
	minimum = 0
	maximum = 0
Injected packet rate average = 0.07428
	minimum = 0.062 (at node 13)
	maximum = 0.091 (at node 12)
Accepted packet rate average = 0.07404
	minimum = 0.058 (at node 14)
	maximum = 0.088 (at node 4)
Injected flit rate average = 0.07428
	minimum = 0.062 (at node 13)
	maximum = 0.091 (at node 12)
Accepted flit rate average= 0.07404
	minimum = 0.058 (at node 14)
	maximum = 0.088 (at node 4)
Injected packet length average = 1
Accepted packet length average = 1
Total in-flight flits = 48 (0 measured)
Buffer busy stall rate = 0.00792
Buffer conflict stall rate = 0.00396
Buffer full stall rate = 0
Buffer reserved stall rate = 0
Crossbar conflict stall rate = 0.00136
latency change    = 0.0183004
throughput change = 0.0207996
Class 0:
Packet latency average = 21.9712
	minimum = 7
	maximum = 44
Network latency average = 21.9712
	minimum = 7
	maximum = 44
Slowest packet = 87027
Flit latency average = 21.9712
	minimum = 7
	maximum = 44
Slowest flit = 87027
Fragmentation average = 0
	minimum = 0
	maximum = 0
Injected packet rate average = 0.07486
	minimum = 0.0635 (at node 24)
	maximum = 0.087 (at node 7)
Accepted packet rate average = 0.07496
	minimum = 0.0625 (at node 7)
	maximum = 0.0855 (at node 8)
Injected flit rate average = 0.07486
	minimum = 0.0635 (at node 24)
	maximum = 0.087 (at node 7)
Accepted flit rate average= 0.07496
	minimum = 0.0625 (at node 7)
	maximum = 0.0855 (at node 8)
Injected packet length average = 1
Accepted packet length average = 1
Total in-flight flits = 37 (0 measured)
Buffer busy stall rate = 0.00804
Buffer conflict stall rate = 0.004
Buffer full stall rate = 0
Buffer reserved stall rate = 0
Crossbar conflict stall rate = 0.00154
latency change    = 0.00977011
throughput change = 0.0122732
Class 0:
Packet latency average = 21.8031
	minimum = 7
	maximum = 41
Network latency average = 21.8031
	minimum = 7
	maximum = 41
Slowest packet = 90797
Flit latency average = 21.8031
	minimum = 7
	maximum = 41
Slowest flit = 90797
Fragmentation average = 0
	minimum = 0
	maximum = 0
Injected packet rate average = 0.07688
	minimum = 0.057 (at node 20)
	maximum = 0.092 (at node 9)
Accepted packet rate average = 0.077
	minimum = 0.056 (at node 23)
	maximum = 0.095 (at node 22)
Injected flit rate average = 0.07688
	minimum = 0.057 (at node 20)
	maximum = 0.092 (at node 9)
Accepted flit rate average= 0.077
	minimum = 0.056 (at node 23)
	maximum = 0.095 (at node 22)
Injected packet length average = 1
Accepted packet length average = 1
Total in-flight flits = 34 (0 measured)
Buffer busy stall rate = 0.0092
Buffer conflict stall rate = 0.00352
Buffer full stall rate = 0
Buffer reserved stall rate = 0
Crossbar conflict stall rate = 0.00148
latency change    = 0.00770843
throughput change = 0.0264935
Class 0:
Packet latency average = 21.9177
	minimum = 7
	maximum = 41
Network latency average = 21.9177
	minimum = 7
	maximum = 41
Slowest packet = 90797
Flit latency average = 21.9177
	minimum = 7
	maximum = 41
Slowest flit = 90797
Fragmentation average = 0
	minimum = 0
	maximum = 0
Injected packet rate average = 0.07442
	minimum = 0.0605 (at node 17)
	maximum = 0.0885 (at node 5)
Accepted packet rate average = 0.07434
	minimum = 0.0625 (at node 8)
	maximum = 0.087 (at node 5)
Injected flit rate average = 0.07442
	minimum = 0.0605 (at node 17)
	maximum = 0.0885 (at node 5)
Accepted flit rate average= 0.07434
	minimum = 0.0625 (at node 8)
	maximum = 0.087 (at node 5)
Injected packet length average = 1
Accepted packet length average = 1
Total in-flight flits = 41 (0 measured)
Buffer busy stall rate = 0.00782
Buffer conflict stall rate = 0.00352
Buffer full stall rate = 0
Buffer reserved stall rate = 0
Crossbar conflict stall rate = 0.00142
latency change    = 0.00522677
throughput change = 0.0357815
Class 0:
Packet latency average = 21.6934
	minimum = 7
	maximum = 42
Network latency average = 21.6934
	minimum = 7
	maximum = 42
Slowest packet = 93873
Flit latency average = 21.6934
	minimum = 7
	maximum = 42
Slowest flit = 93873
Fragmentation average = 0
	minimum = 0
	maximum = 0
Injected packet rate average = 0.07596
	minimum = 0.057 (at node 3)
	maximum = 0.094 (at node 7)
Accepted packet rate average = 0.07632
	minimum = 0.06 (at node 6)
	maximum = 0.095 (at node 9)
Injected flit rate average = 0.07596
	minimum = 0.057 (at node 3)
	maximum = 0.094 (at node 7)
Accepted flit rate average= 0.07632
	minimum = 0.06 (at node 6)
	maximum = 0.095 (at node 9)
Injected packet length average = 1
Accepted packet length average = 1
Total in-flight flits = 32 (0 measured)
Buffer busy stall rate = 0.00728
Buffer conflict stall rate = 0.00376
Buffer full stall rate = 0
Buffer reserved stall rate = 0
Crossbar conflict stall rate = 0.00156
latency change    = 0.0103386
throughput change = 0.0259434
Class 0:
Packet latency average = 21.6851
	minimum = 7
	maximum = 42
Network latency average = 21.6851
	minimum = 7
	maximum = 42
Slowest packet = 93873
Flit latency average = 21.6851
	minimum = 7
	maximum = 42
Slowest flit = 93873
Fragmentation average = 0
	minimum = 0
	maximum = 0
Injected packet rate average = 0.07538
	minimum = 0.0635 (at node 4)
	maximum = 0.086 (at node 17)
Accepted packet rate average = 0.07538
	minimum = 0.065 (at node 10)
	maximum = 0.085 (at node 9)
Injected flit rate average = 0.07538
	minimum = 0.0635 (at node 4)
	maximum = 0.086 (at node 17)
Accepted flit rate average= 0.07538
	minimum = 0.065 (at node 10)
	maximum = 0.085 (at node 9)
Injected packet length average = 1
Accepted packet length average = 1
Total in-flight flits = 41 (0 measured)
Buffer busy stall rate = 0.00722
Buffer conflict stall rate = 0.00348
Buffer full stall rate = 0
Buffer reserved stall rate = 0
Crossbar conflict stall rate = 0.0016
latency change    = 0.000384314
throughput change = 0.0124702
Class 0:
Packet latency average = 21.7709
	minimum = 7
	maximum = 38
Network latency average = 21.7709
	minimum = 7
	maximum = 38
Slowest packet = 97485
Flit latency average = 21.7709
	minimum = 7
	maximum = 38
Slowest flit = 97485
Fragmentation average = 0
	minimum = 0
	maximum = 0
Injected packet rate average = 0.07992
	minimum = 0.057 (at node 22)
	maximum = 0.097 (at node 10)
Accepted packet rate average = 0.0796
	minimum = 0.068 (at node 17)
	maximum = 0.093 (at node 5)
Injected flit rate average = 0.07992
	minimum = 0.057 (at node 22)
	maximum = 0.097 (at node 10)
Accepted flit rate average= 0.0796
	minimum = 0.068 (at node 17)
	maximum = 0.093 (at node 5)
Injected packet length average = 1
Accepted packet length average = 1
Total in-flight flits = 49 (0 measured)
Buffer busy stall rate = 0.00732
Buffer conflict stall rate = 0.00308
Buffer full stall rate = 0
Buffer reserved stall rate = 0
Crossbar conflict stall rate = 0.00148
latency change    = 0.00394068
throughput change = 0.0530151
Class 0:
Packet latency average = 21.7101
	minimum = 7
	maximum = 38
Network latency average = 21.7101
	minimum = 7
	maximum = 38
Slowest packet = 97485
Flit latency average = 21.7101
	minimum = 7
	maximum = 38
Slowest flit = 97485
Fragmentation average = 0
	minimum = 0
	maximum = 0
Injected packet rate average = 0.07708
	minimum = 0.066 (at node 14)
	maximum = 0.0865 (at node 7)
Accepted packet rate average = 0.07706
	minimum = 0.064 (at node 23)
	maximum = 0.0875 (at node 21)
Injected flit rate average = 0.07708
	minimum = 0.066 (at node 14)
	maximum = 0.0865 (at node 7)
Accepted flit rate average= 0.07706
	minimum = 0.064 (at node 23)
	maximum = 0.0875 (at node 21)
Injected packet length average = 1
Accepted packet length average = 1
Total in-flight flits = 42 (0 measured)
Buffer busy stall rate = 0.0075
Buffer conflict stall rate = 0.00326
Buffer full stall rate = 0
Buffer reserved stall rate = 0
Crossbar conflict stall rate = 0.00138
latency change    = 0.00279862
throughput change = 0.0329613
Class 0:
Packet latency average = 21.6997
	minimum = 7
	maximum = 39
Network latency average = 21.6997
	minimum = 7
	maximum = 39
Slowest packet = 102670
Flit latency average = 21.6997
	minimum = 7
	maximum = 39
Slowest flit = 102670
Fragmentation average = 0
	minimum = 0
	maximum = 0
Injected packet rate average = 0.07684
	minimum = 0.058 (at node 10)
	maximum = 0.088 (at node 8)
Accepted packet rate average = 0.077
	minimum = 0.061 (at node 15)
	maximum = 0.092 (at node 5)
Injected flit rate average = 0.07684
	minimum = 0.058 (at node 10)
	maximum = 0.088 (at node 8)
Accepted flit rate average= 0.077
	minimum = 0.061 (at node 15)
	maximum = 0.092 (at node 5)
Injected packet length average = 1
Accepted packet length average = 1
Total in-flight flits = 38 (0 measured)
Buffer busy stall rate = 0.00848
Buffer conflict stall rate = 0.0034
Buffer full stall rate = 0
Buffer reserved stall rate = 0
Crossbar conflict stall rate = 0.0014
latency change    = 0.00047723
throughput change = 0.000779221
Class 0:
Packet latency average = 21.7539
	minimum = 7
	maximum = 39
Network latency average = 21.7539
	minimum = 7
	maximum = 39
Slowest packet = 102670
Flit latency average = 21.7539
	minimum = 7
	maximum = 39
Slowest flit = 102670
Fragmentation average = 0
	minimum = 0
	maximum = 0
Injected packet rate average = 0.07758
	minimum = 0.068 (at node 21)
	maximum = 0.087 (at node 6)
Accepted packet rate average = 0.07752
	minimum = 0.065 (at node 19)
	maximum = 0.086 (at node 20)
Injected flit rate average = 0.07758
	minimum = 0.068 (at node 21)
	maximum = 0.087 (at node 6)
Accepted flit rate average= 0.07752
	minimum = 0.065 (at node 19)
	maximum = 0.086 (at node 20)
Injected packet length average = 1
Accepted packet length average = 1
Total in-flight flits = 45 (0 measured)
Buffer busy stall rate = 0.00792
Buffer conflict stall rate = 0.0035
Buffer full stall rate = 0
Buffer reserved stall rate = 0
Crossbar conflict stall rate = 0.00126
latency change    = 0.00248828
throughput change = 0.00670795
Class 0:
Packet latency average = 21.6311
	minimum = 7
	maximum = 37
Network latency average = 21.6311
	minimum = 7
	maximum = 37
Slowest packet = 105165
Flit latency average = 21.6311
	minimum = 7
	maximum = 37
Slowest flit = 105165
Fragmentation average = 0
	minimum = 0
	maximum = 0
Injected packet rate average = 0.0752
	minimum = 0.054 (at node 9)
	maximum = 0.093 (at node 6)
Accepted packet rate average = 0.07504
	minimum = 0.054 (at node 0)
	maximum = 0.095 (at node 9)
Injected flit rate average = 0.0752
	minimum = 0.054 (at node 9)
	maximum = 0.093 (at node 6)
Accepted flit rate average= 0.07504
	minimum = 0.054 (at node 0)
	maximum = 0.095 (at node 9)
Injected packet length average = 1
Accepted packet length average = 1
Total in-flight flits = 49 (0 measured)
Buffer busy stall rate = 0.00668
Buffer conflict stall rate = 0.00352
Buffer full stall rate = 0
Buffer reserved stall rate = 0
Crossbar conflict stall rate = 0.00116
latency change    = 0.00567423
throughput change = 0.033049
Class 0:
Packet latency average = 21.6202
	minimum = 7
	maximum = 39
Network latency average = 21.6202
	minimum = 7
	maximum = 39
Slowest packet = 108485
Flit latency average = 21.6202
	minimum = 7
	maximum = 39
Slowest flit = 108485
Fragmentation average = 0
	minimum = 0
	maximum = 0
Injected packet rate average = 0.07442
	minimum = 0.063 (at node 14)
	maximum = 0.09 (at node 17)
Accepted packet rate average = 0.07456
	minimum = 0.062 (at node 19)
	maximum = 0.0855 (at node 9)
Injected flit rate average = 0.07442
	minimum = 0.063 (at node 14)
	maximum = 0.09 (at node 17)
Accepted flit rate average= 0.07456
	minimum = 0.062 (at node 19)
	maximum = 0.0855 (at node 9)
Injected packet length average = 1
Accepted packet length average = 1
Total in-flight flits = 38 (0 measured)
Buffer busy stall rate = 0.00732
Buffer conflict stall rate = 0.00324
Buffer full stall rate = 0
Buffer reserved stall rate = 0
Crossbar conflict stall rate = 0.00142
latency change    = 0.00050686
throughput change = 0.00643777
Class 0:
Packet latency average = 22.0507
	minimum = 7
	maximum = 38
Network latency average = 22.0507
	minimum = 7
	maximum = 38
Slowest packet = 110310
Flit latency average = 22.0507
	minimum = 7
	maximum = 38
Slowest flit = 110310
Fragmentation average = 0
	minimum = 0
	maximum = 0
Injected packet rate average = 0.07548
	minimum = 0.059 (at node 1)
	maximum = 0.09 (at node 11)
Accepted packet rate average = 0.075
	minimum = 0.057 (at node 7)
	maximum = 0.091 (at node 8)
Injected flit rate average = 0.07548
	minimum = 0.059 (at node 1)
	maximum = 0.09 (at node 11)
Accepted flit rate average= 0.075
	minimum = 0.057 (at node 7)
	maximum = 0.091 (at node 8)
Injected packet length average = 1
Accepted packet length average = 1
Total in-flight flits = 50 (0 measured)
Buffer busy stall rate = 0.00912
Buffer conflict stall rate = 0.00328
Buffer full stall rate = 0
Buffer reserved stall rate = 0
Crossbar conflict stall rate = 0.0014
latency change    = 0.019523
throughput change = 0.00586667
Class 0:
Packet latency average = 21.9105
	minimum = 7
	maximum = 38
Network latency average = 21.9105
	minimum = 7
	maximum = 38
Slowest packet = 110310
Flit latency average = 21.9105
	minimum = 7
	maximum = 38
Slowest flit = 110310
Fragmentation average = 0
	minimum = 0
	maximum = 0
Injected packet rate average = 0.076
	minimum = 0.0655 (at node 1)
	maximum = 0.084 (at node 20)
Accepted packet rate average = 0.07596
	minimum = 0.062 (at node 7)
	maximum = 0.089 (at node 8)
Injected flit rate average = 0.076
	minimum = 0.0655 (at node 1)
	maximum = 0.084 (at node 20)
Accepted flit rate average= 0.07596
	minimum = 0.062 (at node 7)
	maximum = 0.089 (at node 8)
Injected packet length average = 1
Accepted packet length average = 1
Total in-flight flits = 40 (0 measured)
Buffer busy stall rate = 0.00842
Buffer conflict stall rate = 0.00342
Buffer full stall rate = 0
Buffer reserved stall rate = 0
Crossbar conflict stall rate = 0.00136
latency change    = 0.00639819
throughput change = 0.0126382
Class 0:
Packet latency average = 21.7839
	minimum = 7
	maximum = 41
Network latency average = 21.7839
	minimum = 7
	maximum = 41
Slowest packet = 113626
Flit latency average = 21.7839
	minimum = 7
	maximum = 41
Slowest flit = 113626
Fragmentation average = 0
	minimum = 0
	maximum = 0
Injected packet rate average = 0.07424
	minimum = 0.062 (at node 6)
	maximum = 0.086 (at node 20)
Accepted packet rate average = 0.07384
	minimum = 0.056 (at node 0)
	maximum = 0.089 (at node 4)
Injected flit rate average = 0.07424
	minimum = 0.062 (at node 6)
	maximum = 0.086 (at node 20)
Accepted flit rate average= 0.07384
	minimum = 0.056 (at node 0)
	maximum = 0.089 (at node 4)
Injected packet length average = 1
Accepted packet length average = 1
Total in-flight flits = 50 (0 measured)
Buffer busy stall rate = 0.00744
Buffer conflict stall rate = 0.00288
Buffer full stall rate = 0
Buffer reserved stall rate = 0
Crossbar conflict stall rate = 0.00148
latency change    = 0.00581266
throughput change = 0.0287107
Class 0:
Packet latency average = 21.841
	minimum = 7
	maximum = 41
Network latency average = 21.841
	minimum = 7
	maximum = 41
Slowest packet = 113626
Flit latency average = 21.841
	minimum = 7
	maximum = 41
Slowest flit = 113626
Fragmentation average = 0
	minimum = 0
	maximum = 0
Injected packet rate average = 0.0745
	minimum = 0.067 (at node 4)
	maximum = 0.083 (at node 20)
Accepted packet rate average = 0.07458
	minimum = 0.064 (at node 3)
	maximum = 0.084 (at node 15)
Injected flit rate average = 0.0745
	minimum = 0.067 (at node 4)
	maximum = 0.083 (at node 20)
Accepted flit rate average= 0.07458
	minimum = 0.064 (at node 3)
	maximum = 0.084 (at node 15)
Injected packet length average = 1
Accepted packet length average = 1
Total in-flight flits = 36 (0 measured)
Buffer busy stall rate = 0.0071
Buffer conflict stall rate = 0.00286
Buffer full stall rate = 0
Buffer reserved stall rate = 0
Crossbar conflict stall rate = 0.00136
latency change    = 0.00261523
throughput change = 0.00992223
Class 0:
Packet latency average = 21.7366
	minimum = 7
	maximum = 38
Network latency average = 21.7366
	minimum = 7
	maximum = 38
Slowest packet = 118021
Flit latency average = 21.7366
	minimum = 7
	maximum = 38
Slowest flit = 118021
Fragmentation average = 0
	minimum = 0
	maximum = 0
Injected packet rate average = 0.07376
	minimum = 0.065 (at node 2)
	maximum = 0.089 (at node 8)
Accepted packet rate average = 0.07364
	minimum = 0.052 (at node 21)
	maximum = 0.098 (at node 22)
Injected flit rate average = 0.07376
	minimum = 0.065 (at node 2)
	maximum = 0.089 (at node 8)
Accepted flit rate average= 0.07364
	minimum = 0.052 (at node 21)
	maximum = 0.098 (at node 22)
Injected packet length average = 1
Accepted packet length average = 1
Total in-flight flits = 39 (0 measured)
Buffer busy stall rate = 0.0074
Buffer conflict stall rate = 0.0026
Buffer full stall rate = 0
Buffer reserved stall rate = 0
Crossbar conflict stall rate = 0.00144
latency change    = 0.00480388
throughput change = 0.0127648
Class 0:
Packet latency average = 21.6938
	minimum = 7
	maximum = 38
Network latency average = 21.6938
	minimum = 7
	maximum = 38
Slowest packet = 118021
Flit latency average = 21.6938
	minimum = 7
	maximum = 38
Slowest flit = 118021
Fragmentation average = 0
	minimum = 0
	maximum = 0
Injected packet rate average = 0.07366
	minimum = 0.0615 (at node 14)
	maximum = 0.0855 (at node 8)
Accepted packet rate average = 0.0736
	minimum = 0.0635 (at node 5)
	maximum = 0.09 (at node 22)
Injected flit rate average = 0.07366
	minimum = 0.0615 (at node 14)
	maximum = 0.0855 (at node 8)
Accepted flit rate average= 0.0736
	minimum = 0.0635 (at node 5)
	maximum = 0.09 (at node 22)
Injected packet length average = 1
Accepted packet length average = 1
Total in-flight flits = 39 (0 measured)
Buffer busy stall rate = 0.0071
Buffer conflict stall rate = 0.00302
Buffer full stall rate = 0
Buffer reserved stall rate = 0
Crossbar conflict stall rate = 0.0014
latency change    = 0.00197321
throughput change = 0.000543478
Class 0:
Packet latency average = 21.6436
	minimum = 7
	maximum = 38
Network latency average = 21.6436
	minimum = 7
	maximum = 38
Slowest packet = 121698
Flit latency average = 21.6436
	minimum = 7
	maximum = 38
Slowest flit = 121698
Fragmentation average = 0
	minimum = 0
	maximum = 0
Injected packet rate average = 0.07548
	minimum = 0.061 (at node 24)
	maximum = 0.094 (at node 19)
Accepted packet rate average = 0.0752
	minimum = 0.058 (at node 21)
	maximum = 0.092 (at node 15)
Injected flit rate average = 0.07548
	minimum = 0.061 (at node 24)
	maximum = 0.094 (at node 19)
Accepted flit rate average= 0.0752
	minimum = 0.058 (at node 21)
	maximum = 0.092 (at node 15)
Injected packet length average = 1
Accepted packet length average = 1
Total in-flight flits = 46 (0 measured)
Buffer busy stall rate = 0.00724
Buffer conflict stall rate = 0.0036
Buffer full stall rate = 0
Buffer reserved stall rate = 0
Crossbar conflict stall rate = 0.00144
latency change    = 0.00231629
throughput change = 0.0212766
Class 0:
Packet latency average = 21.7264
	minimum = 7
	maximum = 39
Network latency average = 21.7264
	minimum = 7
	maximum = 39
Slowest packet = 123211
Flit latency average = 21.7264
	minimum = 7
	maximum = 39
Slowest flit = 123211
Fragmentation average = 0
	minimum = 0
	maximum = 0
Injected packet rate average = 0.07708
	minimum = 0.0655 (at node 0)
	maximum = 0.09 (at node 2)
Accepted packet rate average = 0.07698
	minimum = 0.0615 (at node 21)
	maximum = 0.087 (at node 15)
Injected flit rate average = 0.07708
	minimum = 0.0655 (at node 0)
	maximum = 0.09 (at node 2)
Accepted flit rate average= 0.07698
	minimum = 0.0615 (at node 21)
	maximum = 0.087 (at node 15)
Injected packet length average = 1
Accepted packet length average = 1
Total in-flight flits = 44 (0 measured)
Buffer busy stall rate = 0.00774
Buffer conflict stall rate = 0.00352
Buffer full stall rate = 0
Buffer reserved stall rate = 0
Crossbar conflict stall rate = 0.00156
latency change    = 0.00381128
throughput change = 0.0231229
Class 0:
Packet latency average = 21.7743
	minimum = 7
	maximum = 36
Network latency average = 21.7743
	minimum = 7
	maximum = 36
Slowest packet = 123953
Flit latency average = 21.7743
	minimum = 7
	maximum = 36
Slowest flit = 123953
Fragmentation average = 0
	minimum = 0
	maximum = 0
Injected packet rate average = 0.07756
	minimum = 0.061 (at node 16)
	maximum = 0.096 (at node 0)
Accepted packet rate average = 0.07744
	minimum = 0.056 (at node 18)
	maximum = 0.099 (at node 23)
Injected flit rate average = 0.07756
	minimum = 0.061 (at node 16)
	maximum = 0.096 (at node 0)
Accepted flit rate average= 0.07744
	minimum = 0.056 (at node 18)
	maximum = 0.099 (at node 23)
Injected packet length average = 1
Accepted packet length average = 1
Total in-flight flits = 47 (0 measured)
Buffer busy stall rate = 0.00684
Buffer conflict stall rate = 0.003
Buffer full stall rate = 0
Buffer reserved stall rate = 0
Crossbar conflict stall rate = 0.00148
latency change    = 0.00219775
throughput change = 0.00594008
Class 0:
Packet latency average = 21.699
	minimum = 7
	maximum = 37
Network latency average = 21.699
	minimum = 7
	maximum = 37
Slowest packet = 125987
Flit latency average = 21.699
	minimum = 7
	maximum = 37
Slowest flit = 125987
Fragmentation average = 0
	minimum = 0
	maximum = 0
Injected packet rate average = 0.07788
	minimum = 0.061 (at node 16)
	maximum = 0.088 (at node 0)
Accepted packet rate average = 0.07788
	minimum = 0.0655 (at node 18)
	maximum = 0.0885 (at node 23)
Injected flit rate average = 0.07788
	minimum = 0.061 (at node 16)
	maximum = 0.088 (at node 0)
Accepted flit rate average= 0.07788
	minimum = 0.0655 (at node 18)
	maximum = 0.0885 (at node 23)
Injected packet length average = 1
Accepted packet length average = 1
Total in-flight flits = 44 (0 measured)
Buffer busy stall rate = 0.00724
Buffer conflict stall rate = 0.00298
Buffer full stall rate = 0
Buffer reserved stall rate = 0
Crossbar conflict stall rate = 0.00154
latency change    = 0.00346802
throughput change = 0.00564972
Class 0:
Packet latency average = 21.8825
	minimum = 7
	maximum = 38
Network latency average = 21.8825
	minimum = 7
	maximum = 38
Slowest packet = 128123
Flit latency average = 21.8825
	minimum = 7
	maximum = 38
Slowest flit = 128123
Fragmentation average = 0
	minimum = 0
	maximum = 0
Injected packet rate average = 0.07604
	minimum = 0.061 (at node 9)
	maximum = 0.09 (at node 12)
Accepted packet rate average = 0.07624
	minimum = 0.059 (at node 17)
	maximum = 0.089 (at node 8)
Injected flit rate average = 0.07604
	minimum = 0.061 (at node 9)
	maximum = 0.09 (at node 12)
Accepted flit rate average= 0.07624
	minimum = 0.059 (at node 17)
	maximum = 0.089 (at node 8)
Injected packet length average = 1
Accepted packet length average = 1
Total in-flight flits = 39 (0 measured)
Buffer busy stall rate = 0.00776
Buffer conflict stall rate = 0.00312
Buffer full stall rate = 0
Buffer reserved stall rate = 0
Crossbar conflict stall rate = 0.00144
latency change    = 0.00838352
throughput change = 0.021511
Class 0:
Packet latency average = 21.7227
	minimum = 7
	maximum = 38
Network latency average = 21.7227
	minimum = 7
	maximum = 38
Slowest packet = 128123
Flit latency average = 21.7227
	minimum = 7
	maximum = 38
Slowest flit = 128123
Fragmentation average = 0
	minimum = 0
	maximum = 0
Injected packet rate average = 0.0751
	minimum = 0.064 (at node 9)
	maximum = 0.0835 (at node 4)
Accepted packet rate average = 0.0753
	minimum = 0.0605 (at node 6)
	maximum = 0.091 (at node 22)
Injected flit rate average = 0.0751
	minimum = 0.064 (at node 9)
	maximum = 0.0835 (at node 4)
Accepted flit rate average= 0.0753
	minimum = 0.0605 (at node 6)
	maximum = 0.091 (at node 22)
Injected packet length average = 1
Accepted packet length average = 1
Total in-flight flits = 34 (0 measured)
Buffer busy stall rate = 0.00746
Buffer conflict stall rate = 0.0033
Buffer full stall rate = 0
Buffer reserved stall rate = 0
Crossbar conflict stall rate = 0.00136
latency change    = 0.00735485
throughput change = 0.0124834
Class 0:
Packet latency average = 21.8002
	minimum = 7
	maximum = 37
Network latency average = 21.8002
	minimum = 7
	maximum = 37
Slowest packet = 131831
Flit latency average = 21.8002
	minimum = 7
	maximum = 37
Slowest flit = 131831
Fragmentation average = 0
	minimum = 0
	maximum = 0
Injected packet rate average = 0.07096
	minimum = 0.056 (at node 11)
	maximum = 0.09 (at node 13)
Accepted packet rate average = 0.07088
	minimum = 0.056 (at node 9)
	maximum = 0.086 (at node 15)
Injected flit rate average = 0.07096
	minimum = 0.056 (at node 11)
	maximum = 0.09 (at node 13)
Accepted flit rate average= 0.07088
	minimum = 0.056 (at node 9)
	maximum = 0.086 (at node 15)
Injected packet length average = 1
Accepted packet length average = 1
Total in-flight flits = 36 (0 measured)
Buffer busy stall rate = 0.00692
Buffer conflict stall rate = 0.00236
Buffer full stall rate = 0
Buffer reserved stall rate = 0
Crossbar conflict stall rate = 0.00176
latency change    = 0.00355577
throughput change = 0.0623589
Class 0:
Packet latency average = 21.7164
	minimum = 7
	maximum = 38
Network latency average = 21.7164
	minimum = 7
	maximum = 38
Slowest packet = 133617
Flit latency average = 21.7164
	minimum = 7
	maximum = 38
Slowest flit = 133617
Fragmentation average = 0
	minimum = 0
	maximum = 0
Injected packet rate average = 0.07316
	minimum = 0.064 (at node 11)
	maximum = 0.084 (at node 0)
Accepted packet rate average = 0.07292
	minimum = 0.065 (at node 5)
	maximum = 0.0825 (at node 7)
Injected flit rate average = 0.07316
	minimum = 0.064 (at node 11)
	maximum = 0.084 (at node 0)
Accepted flit rate average= 0.07292
	minimum = 0.065 (at node 5)
	maximum = 0.0825 (at node 7)
Injected packet length average = 1
Accepted packet length average = 1
Total in-flight flits = 46 (0 measured)
Buffer busy stall rate = 0.00726
Buffer conflict stall rate = 0.00278
Buffer full stall rate = 0
Buffer reserved stall rate = 0
Crossbar conflict stall rate = 0.00158
latency change    = 0.00385995
throughput change = 0.0279759
Class 0:
Packet latency average = 21.8935
	minimum = 7
	maximum = 37
Network latency average = 21.8935
	minimum = 7
	maximum = 37
Slowest packet = 135394
Flit latency average = 21.8935
	minimum = 7
	maximum = 37
Slowest flit = 135394
Fragmentation average = 0
	minimum = 0
	maximum = 0
Injected packet rate average = 0.0748
	minimum = 0.061 (at node 16)
	maximum = 0.086 (at node 14)
Accepted packet rate average = 0.07512
	minimum = 0.06 (at node 3)
	maximum = 0.09 (at node 13)
Injected flit rate average = 0.0748
	minimum = 0.061 (at node 16)
	maximum = 0.086 (at node 14)
Accepted flit rate average= 0.07512
	minimum = 0.06 (at node 3)
	maximum = 0.09 (at node 13)
Injected packet length average = 1
Accepted packet length average = 1
Total in-flight flits = 38 (0 measured)
Buffer busy stall rate = 0.00716
Buffer conflict stall rate = 0.00252
Buffer full stall rate = 0
Buffer reserved stall rate = 0
Crossbar conflict stall rate = 0.0014
latency change    = 0.00808926
throughput change = 0.0292865
Class 0:
Packet latency average = 21.9775
	minimum = 7
	maximum = 38
Network latency average = 21.9775
	minimum = 7
	maximum = 38
Slowest packet = 138307
Flit latency average = 21.9775
	minimum = 7
	maximum = 38
Slowest flit = 138307
Fragmentation average = 0
	minimum = 0
	maximum = 0
Injected packet rate average = 0.07358
	minimum = 0.064 (at node 10)
	maximum = 0.0805 (at node 15)
Accepted packet rate average = 0.07372
	minimum = 0.064 (at node 18)
	maximum = 0.083 (at node 17)
Injected flit rate average = 0.07358
	minimum = 0.064 (at node 10)
	maximum = 0.0805 (at node 15)
Accepted flit rate average= 0.07372
	minimum = 0.064 (at node 18)
	maximum = 0.083 (at node 17)
Injected packet length average = 1
Accepted packet length average = 1
Total in-flight flits = 39 (0 measured)
Buffer busy stall rate = 0.00736
Buffer conflict stall rate = 0.00306
Buffer full stall rate = 0
Buffer reserved stall rate = 0
Crossbar conflict stall rate = 0.00142
latency change    = 0.00382112
throughput change = 0.0189908
Class 0:
Packet latency average = 21.7723
	minimum = 7
	maximum = 39
Network latency average = 21.7723
	minimum = 7
	maximum = 39
Slowest packet = 139540
Flit latency average = 21.7723
	minimum = 7
	maximum = 39
Slowest flit = 139540
Fragmentation average = 0
	minimum = 0
	maximum = 0
Injected packet rate average = 0.07728
	minimum = 0.064 (at node 18)
	maximum = 0.094 (at node 2)
Accepted packet rate average = 0.07748
	minimum = 0.069 (at node 3)
	maximum = 0.091 (at node 20)
Injected flit rate average = 0.07728
	minimum = 0.064 (at node 18)
	maximum = 0.094 (at node 2)
Accepted flit rate average= 0.07748
	minimum = 0.069 (at node 3)
	maximum = 0.091 (at node 20)
Injected packet length average = 1
Accepted packet length average = 1
Total in-flight flits = 34 (0 measured)
Buffer busy stall rate = 0.0076
Buffer conflict stall rate = 0.00396
Buffer full stall rate = 0
Buffer reserved stall rate = 0
Crossbar conflict stall rate = 0.00136
latency change    = 0.0094227
throughput change = 0.0485287
Class 0:
Packet latency average = 21.8156
	minimum = 7
	maximum = 41
Network latency average = 21.8156
	minimum = 7
	maximum = 41
Slowest packet = 142677
Flit latency average = 21.8156
	minimum = 7
	maximum = 41
Slowest flit = 142677
Fragmentation average = 0
	minimum = 0
	maximum = 0
Injected packet rate average = 0.0767
	minimum = 0.0675 (at node 21)
	maximum = 0.094 (at node 2)
Accepted packet rate average = 0.07658
	minimum = 0.07 (at node 12)
	maximum = 0.084 (at node 20)
Injected flit rate average = 0.0767
	minimum = 0.0675 (at node 21)
	maximum = 0.094 (at node 2)
Accepted flit rate average= 0.07658
	minimum = 0.07 (at node 12)
	maximum = 0.084 (at node 20)
Injected packet length average = 1
Accepted packet length average = 1
Total in-flight flits = 45 (0 measured)
Buffer busy stall rate = 0.0074
Buffer conflict stall rate = 0.00362
Buffer full stall rate = 0
Buffer reserved stall rate = 0
Crossbar conflict stall rate = 0.00156
latency change    = 0.00198433
throughput change = 0.0117524
Class 0:
Packet latency average = 22.0068
	minimum = 7
	maximum = 37
Network latency average = 22.0068
	minimum = 7
	maximum = 37
Slowest packet = 142954
Flit latency average = 22.0068
	minimum = 7
	maximum = 37
Slowest flit = 142954
Fragmentation average = 0
	minimum = 0
	maximum = 0
Injected packet rate average = 0.07672
	minimum = 0.065 (at node 11)
	maximum = 0.094 (at node 21)
Accepted packet rate average = 0.0768
	minimum = 0.067 (at node 21)
	maximum = 0.09 (at node 8)
Injected flit rate average = 0.07672
	minimum = 0.065 (at node 11)
	maximum = 0.094 (at node 21)
Accepted flit rate average= 0.0768
	minimum = 0.067 (at node 21)
	maximum = 0.09 (at node 8)
Injected packet length average = 1
Accepted packet length average = 1
Total in-flight flits = 43 (0 measured)
Buffer busy stall rate = 0.0084
Buffer conflict stall rate = 0.00316
Buffer full stall rate = 0
Buffer reserved stall rate = 0
Crossbar conflict stall rate = 0.00148
latency change    = 0.00868611
throughput change = 0.00286458
Class 0:
Packet latency average = 21.8548
	minimum = 7
	maximum = 39
Network latency average = 21.8548
	minimum = 7
	maximum = 39
Slowest packet = 144955
Flit latency average = 21.8548
	minimum = 7
	maximum = 39
Slowest flit = 144955
Fragmentation average = 0
	minimum = 0
	maximum = 0
Injected packet rate average = 0.07676
	minimum = 0.067 (at node 12)
	maximum = 0.085 (at node 3)
Accepted packet rate average = 0.0767
	minimum = 0.0615 (at node 12)
	maximum = 0.085 (at node 8)
Injected flit rate average = 0.07676
	minimum = 0.067 (at node 12)
	maximum = 0.085 (at node 3)
Accepted flit rate average= 0.0767
	minimum = 0.0615 (at node 12)
	maximum = 0.085 (at node 8)
Injected packet length average = 1
Accepted packet length average = 1
Total in-flight flits = 48 (0 measured)
Buffer busy stall rate = 0.00788
Buffer conflict stall rate = 0.0033
Buffer full stall rate = 0
Buffer reserved stall rate = 0
Crossbar conflict stall rate = 0.00144
latency change    = 0.00695556
throughput change = 0.00130378
Class 0:
Packet latency average = 21.7646
	minimum = 7
	maximum = 38
Network latency average = 21.7646
	minimum = 7
	maximum = 38
Slowest packet = 147841
Flit latency average = 21.7646
	minimum = 7
	maximum = 38
Slowest flit = 147841
Fragmentation average = 0
	minimum = 0
	maximum = 0
Injected packet rate average = 0.07416
	minimum = 0.06 (at node 22)
	maximum = 0.087 (at node 23)
Accepted packet rate average = 0.0746
	minimum = 0.06 (at node 8)
	maximum = 0.089 (at node 1)
Injected flit rate average = 0.07416
	minimum = 0.06 (at node 22)
	maximum = 0.087 (at node 23)
Accepted flit rate average= 0.0746
	minimum = 0.06 (at node 8)
	maximum = 0.089 (at node 1)
Injected packet length average = 1
Accepted packet length average = 1
Total in-flight flits = 37 (0 measured)
[...]
Accepted packet length average = 1
Total in-flight flits = 50 (0 measured)
Buffer busy stall rate = 0.00704
Buffer conflict stall rate = 0.00364
Buffer full stall rate = 0
Buffer reserved stall rate = 0
Crossbar conflict stall rate = 0.00132
latency change    = 0.00359479
throughput change = 0.00185775
Class 0:
Packet latency average = 21.7314
	minimum = 7
	maximum = 43
Network latency average = 21.7314
	minimum = 7
	maximum = 43
Slowest packet = 1849106
Flit latency average = 21.7314
	minimum = 7
	maximum = 43
Slowest flit = 1849106
Fragmentation average = 0
	minimum = 0
	maximum = 0
Injected packet rate average = 0.07352
	minimum = 0.066 (at node 9)
	maximum = 0.085 (at node 10)
Accepted packet rate average = 0.07358
	minimum = 0.061 (at node 20)
	maximum = 0.0855 (at node 24)
Injected flit rate average = 0.07352
	minimum = 0.066 (at node 9)
	maximum = 0.085 (at node 10)
Accepted flit rate average= 0.07358
	minimum = 0.061 (at node 20)
	maximum = 0.0855 (at node 24)
Injected packet length average = 1
Accepted packet length average = 1
Total in-flight flits = 39 (0 measured)
Buffer busy stall rate = 0.00754
Buffer conflict stall rate = 0.00358
Buffer full stall rate = 0
Buffer reserved stall rate = 0
Crossbar conflict stall rate = 0.0014
latency change    = 0.00486174
throughput change = 0.0241914
Class 0:
Packet latency average = 21.4776
	minimum = 7
	maximum = 37
Network latency average = 21.4776
	minimum = 7
	maximum = 37
Slowest packet = 1850811
Flit latency average = 21.4776
	minimum = 7
	maximum = 37
Slowest flit = 1850811
Fragmentation average = 0
	minimum = 0
	maximum = 0
Injected packet rate average = 0.07496
	minimum = 0.061 (at node 15)
	maximum = 0.095 (at node 18)
Accepted packet rate average = 0.07496
	minimum = 0.056 (at node 14)
	maximum = 0.095 (at node 22)
Injected flit rate average = 0.07496
	minimum = 0.061 (at node 15)
	maximum = 0.095 (at node 18)
Accepted flit rate average= 0.07496
	minimum = 0.056 (at node 14)
	maximum = 0.095 (at node 22)
Injected packet length average = 1
Accepted packet length average = 1
Total in-flight flits = 39 (0 measured)
Buffer busy stall rate = 0.00696
Buffer conflict stall rate = 0.00364
Buffer full stall rate = 0
Buffer reserved stall rate = 0
Crossbar conflict stall rate = 0.00136
latency change    = 0.0118198
throughput change = 0.0184098
Class 0:
Packet latency average = 21.5196
	minimum = 7
	maximum = 37
Network latency average = 21.5196
	minimum = 7
	maximum = 37
Slowest packet = 1850811
Flit latency average = 21.5196
	minimum = 7
	maximum = 37
Slowest flit = 1850811
Fragmentation average = 0
	minimum = 0
	maximum = 0
Injected packet rate average = 0.07388
	minimum = 0.0595 (at node 15)
	maximum = 0.085 (at node 18)
Accepted packet rate average = 0.0739
	minimum = 0.063 (at node 14)
	maximum = 0.0865 (at node 7)
Injected flit rate average = 0.07388
	minimum = 0.0595 (at node 15)
	maximum = 0.085 (at node 18)
Accepted flit rate average= 0.0739
	minimum = 0.063 (at node 14)
	maximum = 0.0865 (at node 7)
Injected packet length average = 1
Accepted packet length average = 1
Total in-flight flits = 38 (0 measured)
Buffer busy stall rate = 0.00704
Buffer conflict stall rate = 0.00354
Buffer full stall rate = 0
Buffer reserved stall rate = 0
Crossbar conflict stall rate = 0.00118
latency change    = 0.00195324
throughput change = 0.0143437
Class 0:
Packet latency average = 21.5611
	minimum = 7
	maximum = 37
Network latency average = 21.5611
	minimum = 7
	maximum = 37
Slowest packet = 1854473
Flit latency average = 21.5611
	minimum = 7
	maximum = 37
Slowest flit = 1854473
Fragmentation average = 0
	minimum = 0
	maximum = 0
Injected packet rate average = 0.07576
	minimum = 0.058 (at node 9)
	maximum = 0.095 (at node 5)
Accepted packet rate average = 0.07564
	minimum = 0.056 (at node 15)
	maximum = 0.091 (at node 7)
Injected flit rate average = 0.07576
	minimum = 0.058 (at node 9)
	maximum = 0.095 (at node 5)
Accepted flit rate average= 0.07564
	minimum = 0.056 (at node 15)
	maximum = 0.091 (at node 7)
Injected packet length average = 1
Accepted packet length average = 1
Total in-flight flits = 41 (0 measured)
Buffer busy stall rate = 0.00704
Buffer conflict stall rate = 0.00336
Buffer full stall rate = 0
Buffer reserved stall rate = 0
Crossbar conflict stall rate = 0.00152
latency change    = 0.0019228
throughput change = 0.0230037
Class 0:
Packet latency average = 21.7061
	minimum = 7
	maximum = 38
Network latency average = 21.7061
	minimum = 7
	maximum = 38
Slowest packet = 1856430
Flit latency average = 21.7061
	minimum = 7
	maximum = 38
Slowest flit = 1856430
Fragmentation average = 0
	minimum = 0
	maximum = 0
Injected packet rate average = 0.07594
	minimum = 0.061 (at node 8)
	maximum = 0.09 (at node 10)
Accepted packet rate average = 0.07594
	minimum = 0.0685 (at node 22)
	maximum = 0.0905 (at node 19)
Injected flit rate average = 0.07594
	minimum = 0.061 (at node 8)
	maximum = 0.09 (at node 10)
Accepted flit rate average= 0.07594
	minimum = 0.0685 (at node 22)
	maximum = 0.0905 (at node 19)
Injected packet length average = 1
Accepted packet length average = 1
Total in-flight flits = 38 (0 measured)
Buffer busy stall rate = 0.00738
Buffer conflict stall rate = 0.00326
Buffer full stall rate = 0
Buffer reserved stall rate = 0
Crossbar conflict stall rate = 0.00144
latency change    = 0.00668038
throughput change = 0.00395049
Class 0:
Packet latency average = 21.8864
	minimum = 7
	maximum = 37
Network latency average = 21.8864
	minimum = 7
	maximum = 37
Slowest packet = 1858446
Flit latency average = 21.8864
	minimum = 7
	maximum = 37
Slowest flit = 1858446
Fragmentation average = 0
	minimum = 0
	maximum = 0
Injected packet rate average = 0.07484
	minimum = 0.055 (at node 18)
	maximum = 0.089 (at node 2)
Accepted packet rate average = 0.07468
	minimum = 0.061 (at node 15)
	maximum = 0.092 (at node 19)
Injected flit rate average = 0.07484
	minimum = 0.055 (at node 18)
	maximum = 0.089 (at node 2)
Accepted flit rate average= 0.07468
	minimum = 0.061 (at node 15)
	maximum = 0.092 (at node 19)
Injected packet length average = 1
Accepted packet length average = 1
Total in-flight flits = 42 (0 measured)
Buffer busy stall rate = 0.0078
Buffer conflict stall rate = 0.00332
Buffer full stall rate = 0
Buffer reserved stall rate = 0
Crossbar conflict stall rate = 0.00156
latency change    = 0.00824095
throughput change = 0.016872
Class 0:
Packet latency average = 21.7546
	minimum = 7
	maximum = 37
Network latency average = 21.7546
	minimum = 7
	maximum = 37
Slowest packet = 1858446
Flit latency average = 21.7546
	minimum = 7
	maximum = 37
Slowest flit = 1858446
Fragmentation average = 0
	minimum = 0
	maximum = 0
Injected packet rate average = 0.07338
	minimum = 0.062 (at node 6)
	maximum = 0.089 (at node 3)
Accepted packet rate average = 0.07326
	minimum = 0.0575 (at node 15)
	maximum = 0.085 (at node 22)
Injected flit rate average = 0.07338
	minimum = 0.062 (at node 6)
	maximum = 0.089 (at node 3)
Accepted flit rate average= 0.07326
	minimum = 0.0575 (at node 15)
	maximum = 0.085 (at node 22)
Injected packet length average = 1
Accepted packet length average = 1
Total in-flight flits = 44 (0 measured)
Buffer busy stall rate = 0.00738
Buffer conflict stall rate = 0.00332
Buffer full stall rate = 0
Buffer reserved stall rate = 0
Crossbar conflict stall rate = 0.00134
latency change    = 0.00606199
throughput change = 0.019383
Class 0:
Packet latency average = 21.737
	minimum = 7
	maximum = 38
Network latency average = 21.737
	minimum = 7
	maximum = 38
Slowest packet = 1861953
Flit latency average = 21.737
	minimum = 7
	maximum = 38
Slowest flit = 1861953
Fragmentation average = 0
	minimum = 0
	maximum = 0
Injected packet rate average = 0.0738
	minimum = 0.059 (at node 8)
	maximum = 0.089 (at node 3)
Accepted packet rate average = 0.07392
	minimum = 0.06 (at node 10)
	maximum = 0.096 (at node 0)
Injected flit rate average = 0.0738
	minimum = 0.059 (at node 8)
	maximum = 0.089 (at node 3)
Accepted flit rate average= 0.07392
	minimum = 0.06 (at node 10)
	maximum = 0.096 (at node 0)
Injected packet length average = 1
Accepted packet length average = 1
Total in-flight flits = 41 (0 measured)
Buffer busy stall rate = 0.00756
Buffer conflict stall rate = 0.00336
Buffer full stall rate = 0
Buffer reserved stall rate = 0
Crossbar conflict stall rate = 0.00176
latency change    = 0.000807828
throughput change = 0.00892857
Class 0:
Packet latency average = 21.7876
	minimum = 7
	maximum = 38
Network latency average = 21.7876
	minimum = 7
	maximum = 38
Slowest packet = 1861953
Flit latency average = 21.7876
	minimum = 7
	maximum = 38
Slowest flit = 1861953
Fragmentation average = 0
	minimum = 0
	maximum = 0
Injected packet rate average = 0.07598
	minimum = 0.0655 (at node 1)
	maximum = 0.0885 (at node 2)
Accepted packet rate average = 0.07588
	minimum = 0.0625 (at node 10)
	maximum = 0.089 (at node 0)
Injected flit rate average = 0.07598
	minimum = 0.0655 (at node 1)
	maximum = 0.0885 (at node 2)
Accepted flit rate average= 0.07588
	minimum = 0.0625 (at node 10)
	maximum = 0.089 (at node 0)
Injected packet length average = 1
Accepted packet length average = 1
Total in-flight flits = 49 (0 measured)
Buffer busy stall rate = 0.00782
Buffer conflict stall rate = 0.00334
Buffer full stall rate = 0
Buffer reserved stall rate = 0
Crossbar conflict stall rate = 0.00166
latency change    = 0.00231996
throughput change = 0.0258303
Class 0:
Packet latency average = 21.8832
	minimum = 7
	maximum = 38
Network latency average = 21.8832
	minimum = 7
	maximum = 38
Slowest packet = 1866180
Flit latency average = 21.8832
	minimum = 7
	maximum = 38
Slowest flit = 1866180
Fragmentation average = 0
	minimum = 0
	maximum = 0
Injected packet rate average = 0.07444
	minimum = 0.057 (at node 18)
	maximum = 0.094 (at node 13)
Accepted packet rate average = 0.07464
	minimum = 0.061 (at node 1)
	maximum = 0.092 (at node 12)
Injected flit rate average = 0.07444
	minimum = 0.057 (at node 18)
	maximum = 0.094 (at node 13)
Accepted flit rate average= 0.07464
	minimum = 0.061 (at node 1)
	maximum = 0.092 (at node 12)
Injected packet length average = 1
Accepted packet length average = 1
Total in-flight flits = 44 (0 measured)
Buffer busy stall rate = 0.00808
Buffer conflict stall rate = 0.00376
Buffer full stall rate = 0
Buffer reserved stall rate = 0
Crossbar conflict stall rate = 0.00156
latency change    = 0.00436926
throughput change = 0.0166131
Class 0:
Packet latency average = 21.9867
	minimum = 7
	maximum = 40
Network latency average = 21.9867
	minimum = 7
	maximum = 40
Slowest packet = 1867609
Flit latency average = 21.9867
	minimum = 7
	maximum = 40
Slowest flit = 1867609
Fragmentation average = 0
	minimum = 0
	maximum = 0
Injected packet rate average = 0.07468
	minimum = 0.0655 (at node 5)
	maximum = 0.0865 (at node 21)
Accepted packet rate average = 0.07498
	minimum = 0.0645 (at node 19)
	maximum = 0.0875 (at node 10)
Injected flit rate average = 0.07468
	minimum = 0.0655 (at node 5)
	maximum = 0.0865 (at node 21)
Accepted flit rate average= 0.07498
	minimum = 0.0645 (at node 19)
	maximum = 0.0875 (at node 10)
Injected packet length average = 1
Accepted packet length average = 1
Total in-flight flits = 34 (0 measured)
Buffer busy stall rate = 0.00808
Buffer conflict stall rate = 0.00378
Buffer full stall rate = 0
Buffer reserved stall rate = 0
Crossbar conflict stall rate = 0.00152
latency change    = 0.00470697
throughput change = 0.00453454
Class 0:
Packet latency average = 21.6758
	minimum = 7
	maximum = 38
Network latency average = 21.6758
	minimum = 7
	maximum = 38
Slowest packet = 1869055
Flit latency average = 21.6758
	minimum = 7
	maximum = 38
Slowest flit = 1869055
Fragmentation average = 0
	minimum = 0
	maximum = 0
Injected packet rate average = 0.07628
	minimum = 0.067 (at node 18)
	maximum = 0.101 (at node 17)
Accepted packet rate average = 0.07588
	minimum = 0.055 (at node 19)
	maximum = 0.09 (at node 7)
Injected flit rate average = 0.07628
	minimum = 0.067 (at node 18)
	maximum = 0.101 (at node 17)
Accepted flit rate average= 0.07588
	minimum = 0.055 (at node 19)
	maximum = 0.09 (at node 7)
Injected packet length average = 1
Accepted packet length average = 1
Total in-flight flits = 44 (0 measured)
Buffer busy stall rate = 0.0078
Buffer conflict stall rate = 0.00328
Buffer full stall rate = 0
Buffer reserved stall rate = 0
Crossbar conflict stall rate = 0.0014
latency change    = 0.0143413
throughput change = 0.0118608
Class 0:
Packet latency average = 21.7051
	minimum = 7
	maximum = 38
Network latency average = 21.7051
	minimum = 7
	maximum = 38
Slowest packet = 1869055
Flit latency average = 21.7051
	minimum = 7
	maximum = 38
Slowest flit = 1869055
Fragmentation average = 0
	minimum = 0
	maximum = 0
Injected packet rate average = 0.07722
	minimum = 0.0665 (at node 6)
	maximum = 0.091 (at node 8)
Accepted packet rate average = 0.07704
	minimum = 0.064 (at node 18)
	maximum = 0.087 (at node 1)
Injected flit rate average = 0.07722
	minimum = 0.0665 (at node 6)
	maximum = 0.091 (at node 8)
Accepted flit rate average= 0.07704
	minimum = 0.064 (at node 18)
	maximum = 0.087 (at node 1)
Injected packet length average = 1
Accepted packet length average = 1
Total in-flight flits = 43 (0 measured)
Buffer busy stall rate = 0.00814
Buffer conflict stall rate = 0.00364
Buffer full stall rate = 0
Buffer reserved stall rate = 0
Crossbar conflict stall rate = 0.00164
latency change    = 0.00134919
throughput change = 0.0150571
Class 0:
Packet latency average = 21.6271
	minimum = 7
	maximum = 39
Network latency average = 21.6271
	minimum = 7
	maximum = 39
Slowest packet = 1873345
Flit latency average = 21.6271
	minimum = 7
	maximum = 39
Slowest flit = 1873345
Fragmentation average = 0
	minimum = 0
	maximum = 0
Injected packet rate average = 0.076
	minimum = 0.063 (at node 23)
	maximum = 0.088 (at node 5)
Accepted packet rate average = 0.07584
	minimum = 0.063 (at node 0)
	maximum = 0.091 (at node 6)
Injected flit rate average = 0.076
	minimum = 0.063 (at node 23)
	maximum = 0.088 (at node 5)
Accepted flit rate average= 0.07584
	minimum = 0.063 (at node 0)
	maximum = 0.091 (at node 6)
Injected packet length average = 1
Accepted packet length average = 1
Total in-flight flits = 47 (0 measured)
Buffer busy stall rate = 0.007
Buffer conflict stall rate = 0.00292
Buffer full stall rate = 0
Buffer reserved stall rate = 0
Crossbar conflict stall rate = 0.0018
latency change    = 0.00360559
throughput change = 0.0158228
Class 0:
Packet latency average = 21.8745
	minimum = 7
	maximum = 39
Network latency average = 21.8745
	minimum = 7
	maximum = 39
Slowest packet = 1873345
Flit latency average = 21.8745
	minimum = 7
	maximum = 39
Slowest flit = 1873345
Fragmentation average = 0
	minimum = 0
	maximum = 0
Injected packet rate average = 0.0754
	minimum = 0.064 (at node 23)
	maximum = 0.0855 (at node 3)
Accepted packet rate average = 0.07552
	minimum = 0.062 (at node 18)
	maximum = 0.084 (at node 21)
Injected flit rate average = 0.0754
	minimum = 0.064 (at node 23)
	maximum = 0.0855 (at node 3)
Accepted flit rate average= 0.07552
	minimum = 0.062 (at node 18)
	maximum = 0.084 (at node 21)
Injected packet length average = 1
Accepted packet length average = 1
Total in-flight flits = 37 (0 measured)
Buffer busy stall rate = 0.00736
Buffer conflict stall rate = 0.0032
Buffer full stall rate = 0
Buffer reserved stall rate = 0
Crossbar conflict stall rate = 0.00148
latency change    = 0.0113082
throughput change = 0.00423729
Warmed up ...Time used is 1000000 cycles
Class 0:
Packet latency average = 21.9781
	minimum = 7
	maximum = 37
Network latency average = 21.9781
	minimum = 7
	maximum = 37
Slowest packet = 1876658
Flit latency average = 22
	minimum = 7
	maximum = 37
Slowest flit = 1876658
Fragmentation average = 0
	minimum = 0
	maximum = 0
Injected packet rate average = 0.07648
	minimum = 0.064 (at node 14)
	maximum = 0.101 (at node 22)
Accepted packet rate average = 0.07636
	minimum = 0.061 (at node 10)
	maximum = 0.092 (at node 1)
Injected flit rate average = 0.07648
	minimum = 0.064 (at node 14)
	maximum = 0.101 (at node 22)
Accepted flit rate average= 0.07636
	minimum = 0.061 (at node 10)
	maximum = 0.092 (at node 1)
Injected packet length average = 1
Accepted packet length average = 1
Total in-flight flits = 40 (40 measured)
Buffer busy stall rate = 0.00756
Buffer conflict stall rate = 0.00376
Buffer full stall rate = 0
Buffer reserved stall rate = 0
Crossbar conflict stall rate = 0.00152
latency change    = 0.00471506
throughput change = 0.0110005
Class 0:
Packet latency average = 21.8447
	minimum = 7
	maximum = 37
Network latency average = 21.8447
	minimum = 7
	maximum = 37
Slowest packet = 1876658
Flit latency average = 21.8571
	minimum = 7
	maximum = 37
Slowest flit = 1876658
Fragmentation average = 0
	minimum = 0
	maximum = 0
Injected packet rate average = 0.07522
	minimum = 0.066 (at node 6)
	maximum = 0.09 (at node 22)
Accepted packet rate average = 0.07518
	minimum = 0.06 (at node 12)
	maximum = 0.089 (at node 23)
Injected flit rate average = 0.07522
	minimum = 0.066 (at node 6)
	maximum = 0.09 (at node 22)
Accepted flit rate average= 0.07518
	minimum = 0.06 (at node 12)
	maximum = 0.089 (at node 23)
Injected packet length average = 1
Accepted packet length average = 1
Total in-flight flits = 39 (39 measured)
Buffer busy stall rate = 0.00772
Buffer conflict stall rate = 0.00374
Buffer full stall rate = 0
Buffer reserved stall rate = 0
Crossbar conflict stall rate = 0.0014
latency change    = 0.00610634
throughput change = 0.0156957
Class 0:
Packet latency average = 21.8536
	minimum = 7
	maximum = 38
Network latency average = 21.8536
	minimum = 7
	maximum = 38
Slowest packet = 1881468
Flit latency average = 21.8618
	minimum = 7
	maximum = 38
Slowest flit = 1881468
Fragmentation average = 0
	minimum = 0
	maximum = 0
Injected packet rate average = 0.07516
	minimum = 0.0676667 (at node 7)
	maximum = 0.086 (at node 22)
Accepted packet rate average = 0.0750667
	minimum = 0.065 (at node 24)
	maximum = 0.083 (at node 16)
Injected flit rate average = 0.07516
	minimum = 0.0676667 (at node 7)
	maximum = 0.086 (at node 22)
Accepted flit rate average= 0.0750667
	minimum = 0.065 (at node 24)
	maximum = 0.083 (at node 16)
Injected packet length average = 1
Accepted packet length average = 1
Total in-flight flits = 44 (44 measured)
Buffer busy stall rate = 0.00764
Buffer conflict stall rate = 0.00357333
Buffer full stall rate = 0
Buffer reserved stall rate = 0
Crossbar conflict stall rate = 0.00141333
latency change    = 0.000405417
throughput change = 0.00150977
Draining all recorded packets ...
Draining remaining packets ...
Time taken is 1003058 cycles
====== Overall Traffic Statistics ======
====== Traffic class 0 ======
Packet latency average = 21.8737 (1 samples)
	minimum = 7 (1 samples)
	maximum = 38 (1 samples)
Network latency average = 21.8737 (1 samples)
	minimum = 7 (1 samples)
	maximum = 38 (1 samples)
Flit latency average = 21.8844 (1 samples)
	minimum = 7 (1 samples)
	maximum = 38 (1 samples)
Fragmentation average = 0 (1 samples)
	minimum = 0 (1 samples)
	maximum = 0 (1 samples)
Injected packet rate average = 0.07516 (1 samples)
	minimum = 0.0676667 (1 samples)
	maximum = 0.086 (1 samples)
Accepted packet rate average = 0.0750667 (1 samples)
	minimum = 0.065 (1 samples)
	maximum = 0.083 (1 samples)
Injected flit rate average = 0.07516 (1 samples)
	minimum = 0.0676667 (1 samples)
	maximum = 0.086 (1 samples)
Accepted flit rate average = 0.0750667 (1 samples)
	minimum = 0.065 (1 samples)
	maximum = 0.083 (1 samples)
Injected packet size average = 1 (1 samples)
Accepted packet size average = 1 (1 samples)
Hops average = 3.41334 (1 samples)
Buffer busy stall rate = 0.00764 (1 samples)
Buffer conflict stall rate = 0.00357333 (1 samples)
Buffer full stall rate = 0 (1 samples)
Buffer reserved stall rate = 0 (1 samples)
Crossbar conflict stall rate = 0.00141333 (1 samples)
Total run time 92.2754
