BEGIN Configuration File: ../booksim/src/examples/torus3x3.cfg
// 3x3 Torus configuration
topology = torus;
k = 3;
n = 2;

// Routing
routing_function = dim_order;

// Flow control
num_vcs = 2;

// Traffic
traffic = uniform;
injection_rate = 0.05;

// Simulation parameters
sim_count = 1;
sim_type = latency;
warmup_periods = 1000;
max_samples = 10000;
// Need to add duration if needed
// Let's assume default behavior for now

END Configuration File: ../booksim/src/examples/torus3x3.cfg
OVERRIDE Parameter: injection_rate=0.05
OVERRIDE Parameter: traffic=uniform
OVERRIDE Parameter: sim_count=1
OVERRIDE Parameter: max_samples=10000
Class 0:
Packet latency average = 14.8535
	minimum = 7
	maximum = 25
Network latency average = 14.8535
	minimum = 7
	maximum = 25
Slowest packet = 412
Flit latency average = 14.8535
	minimum = 7
	maximum = 25
Slowest flit = 412
Fragmentation average = 0
	minimum = 0
	maximum = 0
Injected packet rate average = 0.0488889
	minimum = 0.035 (at node 2)
	maximum = 0.059 (at node 8)
Accepted packet rate average = 0.0485556
	minimum = 0.039 (at node 1)
	maximum = 0.062 (at node 2)
Injected flit rate average = 0.0488889
	minimum = 0.035 (at node 2)
	maximum = 0.059 (at node 8)
Accepted flit rate average= 0.0485556
	minimum = 0.039 (at node 1)
	maximum = 0.062 (at node 2)
Injected packet length average = 1
Accepted packet length average = 1
Total in-flight flits = 3 (0 measured)
Buffer busy stall rate = 0.000888889
Buffer conflict stall rate = 0.00111111
Buffer full stall rate = 0
Buffer reserved stall rate = 0
Crossbar conflict stall rate = 0.000444444
latency change    = 1
throughput change = 1
Class 0:
Packet latency average = 15.0194
	minimum = 7
	maximum = 25
Network latency average = 15.0194
	minimum = 7
	maximum = 25
Slowest packet = 412
Flit latency average = 15.0194
	minimum = 7
	maximum = 25
Slowest flit = 412
Fragmentation average = 0
	minimum = 0
	maximum = 0
Injected packet rate average = 0.049
	minimum = 0.046 (at node 2)
	maximum = 0.054 (at node 8)
Accepted packet rate average = 0.0487778
	minimum = 0.046 (at node 8)
	maximum = 0.054 (at node 2)
Injected flit rate average = 0.049
	minimum = 0.046 (at node 2)
	maximum = 0.054 (at node 8)
Accepted flit rate average= 0.0487778
	minimum = 0.046 (at node 8)
	maximum = 0.054 (at node 2)
Injected packet length average = 1
Accepted packet length average = 1
Total in-flight flits = 4 (0 measured)
Buffer busy stall rate = 0.001
Buffer conflict stall rate = 0.000888889
Buffer full stall rate = 0
Buffer reserved stall rate = 0
Crossbar conflict stall rate = 0.000444444
latency change    = 0.0110401
throughput change = 0.00455581
Class 0:
Packet latency average = 14.784
	minimum = 7
	maximum = 22
Network latency average = 14.784
	minimum = 7
	maximum = 22
Slowest packet = 929
Flit latency average = 14.784
	minimum = 7
	maximum = 22
Slowest flit = 929
Fragmentation average = 0
	minimum = 0
	maximum = 0
Injected packet rate average = 0.0502222
	minimum = 0.044 (at node 2)
	maximum = 0.055 (at node 6)
Accepted packet rate average = 0.0498889
	minimum = 0.043 (at node 1)
	maximum = 0.062 (at node 7)
Injected flit rate average = 0.0502222
	minimum = 0.044 (at node 2)
	maximum = 0.055 (at node 6)
Accepted flit rate average= 0.0498889
	minimum = 0.043 (at node 1)
	maximum = 0.062 (at node 7)
Injected packet length average = 1
Accepted packet length average = 1
Total in-flight flits = 7 (0 measured)
Buffer busy stall rate = 0.00133333
Buffer conflict stall rate = 0.000555556
Buffer full stall rate = 0
Buffer reserved stall rate = 0
Crossbar conflict stall rate = 0.000111111
latency change    = 0.0159225
throughput change = 0.0222717
Class 0:
Packet latency average = 15
	minimum = 7
	maximum = 22
Network latency average = 15
	minimum = 7
	maximum = 22
Slowest packet = 929
Flit latency average = 15
	minimum = 7
	maximum = 22
Slowest flit = 929
Fragmentation average = 0
	minimum = 0
	maximum = 0
Injected packet rate average = 0.049
	minimum = 0.043 (at node 5)
	maximum = 0.052 (at node 8)
Accepted packet rate average = 0.0486111
	minimum = 0.0435 (at node 1)
	maximum = 0.0535 (at node 4)
Injected flit rate average = 0.049
	minimum = 0.043 (at node 5)
	maximum = 0.052 (at node 8)
Accepted flit rate average= 0.0486111
	minimum = 0.0435 (at node 1)
	maximum = 0.0535 (at node 4)
Injected packet length average = 1
Accepted packet length average = 1
Total in-flight flits = 11 (0 measured)
Buffer busy stall rate = 0.00122222
Buffer conflict stall rate = 0.000611111
Buffer full stall rate = 0
Buffer reserved stall rate = 0
Crossbar conflict stall rate = 0.000277778
latency change    = 0.0144024
throughput change = 0.0262857
Class 0:
Packet latency average = 14.9876
	minimum = 7
	maximum = 23
Network latency average = 14.9876
	minimum = 7
	maximum = 23
Slowest packet = 1761
Flit latency average = 14.9876
	minimum = 7
	maximum = 23
Slowest flit = 1761
Fragmentation average = 0
	minimum = 0
	maximum = 0
Injected packet rate average = 0.0533333
	minimum = 0.048 (at node 2)
	maximum = 0.06 (at node 4)
Accepted packet rate average = 0.0535556
	minimum = 0.045 (at node 3)
	maximum = 0.063 (at node 5)
Injected flit rate average = 0.0533333
	minimum = 0.048 (at node 2)
	maximum = 0.06 (at node 4)
Accepted flit rate average= 0.0535556
	minimum = 0.045 (at node 3)
	maximum = 0.063 (at node 5)
Injected packet length average = 1
Accepted packet length average = 1
Total in-flight flits = 9 (0 measured)
Buffer busy stall rate = 0.00155556
Buffer conflict stall rate = 0.00111111
Buffer full stall rate = 0
Buffer reserved stall rate = 0
Crossbar conflict stall rate = 0.000444444
latency change    = 0.000830565
throughput change = 0.0923237
Class 0:
Packet latency average = 15.0433
	minimum = 7
	maximum = 23
Network latency average = 15.0433
	minimum = 7
	maximum = 23
Slowest packet = 1761
Flit latency average = 15.0433
	minimum = 7
	maximum = 23
Slowest flit = 1761
Fragmentation average = 0
	minimum = 0
	maximum = 0
Injected packet rate average = 0.0523889
	minimum = 0.0465 (at node 6)
	maximum = 0.0615 (at node 7)
Accepted packet rate average = 0.0526111
	minimum = 0.046 (at node 0)
	maximum = 0.06 (at node 5)
Injected flit rate average = 0.0523889
	minimum = 0.0465 (at node 6)
	maximum = 0.0615 (at node 7)
Accepted flit rate average= 0.0526111
	minimum = 0.046 (at node 0)
	maximum = 0.06 (at node 5)
Injected packet length average = 1
Accepted packet length average = 1
Total in-flight flits = 7 (0 measured)
Buffer busy stall rate = 0.00177778
Buffer conflict stall rate = 0.00111111
Buffer full stall rate = 0
Buffer reserved stall rate = 0
Crossbar conflict stall rate = 0.000444444
latency change    = 0.00370549
throughput change = 0.0179514
Class 0:
Packet latency average = 15.0386
	minimum = 7
	maximum = 22
Network latency average = 15.0386
	minimum = 7
	maximum = 22
Slowest packet = 2701
Flit latency average = 15.0386
	minimum = 7
	maximum = 22
Slowest flit = 2701
Fragmentation average = 0
	minimum = 0
	maximum = 0
Injected packet rate average = 0.0462222
	minimum = 0.041 (at node 8)
	maximum = 0.053 (at node 0)
Accepted packet rate average = 0.046
	minimum = 0.036 (at node 3)
	maximum = 0.054 (at node 7)
Injected flit rate average = 0.0462222
	minimum = 0.041 (at node 8)
	maximum = 0.053 (at node 0)
Accepted flit rate average= 0.046
	minimum = 0.036 (at node 3)
	maximum = 0.054 (at node 7)
Injected packet length average = 1
Accepted packet length average = 1
Total in-flight flits = 9 (0 measured)
Buffer busy stall rate = 0.000777778
Buffer conflict stall rate = 0.001
Buffer full stall rate = 0
Buffer reserved stall rate = 0
Crossbar conflict stall rate = 0
latency change    = 0.000309022
throughput change = 0.14372
Class 0:
Packet latency average = 15.0333
	minimum = 7
	maximum = 22
Network latency average = 15.0333
	minimum = 7
	maximum = 22
Slowest packet = 2701
Flit latency average = 15.0333
	minimum = 7
	maximum = 22
Slowest flit = 2701
Fragmentation average = 0
	minimum = 0
	maximum = 0
Injected packet rate average = 0.0466667
	minimum = 0.035 (at node 8)
	maximum = 0.057 (at node 2)
Accepted packet rate average = 0.0466667
	minimum = 0.0405 (at node 2)
	maximum = 0.052 (at node 8)
Injected flit rate average = 0.0466667
	minimum = 0.035 (at node 8)
	maximum = 0.057 (at node 2)
Accepted flit rate average= 0.0466667
	minimum = 0.0405 (at node 2)
	maximum = 0.052 (at node 8)
Injected packet length average = 1
Accepted packet length average = 1
Total in-flight flits = 7 (0 measured)
Buffer busy stall rate = 0.000944444
Buffer conflict stall rate = 0.000888889
Buffer full stall rate = 0
Buffer reserved stall rate = 0
Crossbar conflict stall rate = 0.000222222
latency change    = 0.000353482
throughput change = 0.0142857
Class 0:
Packet latency average = 15.3129
	minimum = 7
	maximum = 24
Network latency average = 15.3129
	minimum = 7
	maximum = 24
Slowest packet = 3562
Flit latency average = 15.3129
	minimum = 7
	maximum = 24
Slowest flit = 3562
Fragmentation average = 0
	minimum = 0
	maximum = 0
Injected packet rate average = 0.0486667
	minimum = 0.044 (at node 1)
	maximum = 0.057 (at node 6)
Accepted packet rate average = 0.049
	minimum = 0.043 (at node 1)
	maximum = 0.063 (at node 3)
Injected flit rate average = 0.0486667
	minimum = 0.044 (at node 1)
	maximum = 0.057 (at node 6)
Accepted flit rate average= 0.049
	minimum = 0.043 (at node 1)
	maximum = 0.063 (at node 3)
Injected packet length average = 1
Accepted packet length average = 1
Total in-flight flits = 4 (0 measured)
Buffer busy stall rate = 0.00122222
Buffer conflict stall rate = 0.001
Buffer full stall rate = 0
Buffer reserved stall rate = 0
Crossbar conflict stall rate = 0.000555556
latency change    = 0.0182586
throughput change = 0.047619
Class 0:
Packet latency average = 15.4073
	minimum = 7
	maximum = 24
Network latency average = 15.4073
	minimum = 7
	maximum = 24
Slowest packet = 3562
Flit latency average = 15.4073
	minimum = 7
	maximum = 24
Slowest flit = 3562
Fragmentation average = 0
	minimum = 0
	maximum = 0
Injected packet rate average = 0.0488889
	minimum = 0.047 (at node 1)
	maximum = 0.0515 (at node 2)
Accepted packet rate average = 0.0488333
	minimum = 0.04 (at node 1)
	maximum = 0.0575 (at node 3)
Injected flit rate average = 0.0488889
	minimum = 0.047 (at node 1)
	maximum = 0.0515 (at node 2)
Accepted flit rate average= 0.0488333
	minimum = 0.04 (at node 1)
	maximum = 0.0575 (at node 3)
Injected packet length average = 1
Accepted packet length average = 1
Total in-flight flits = 8 (0 measured)
Buffer busy stall rate = 0.00133333
Buffer conflict stall rate = 0.000777778
Buffer full stall rate = 0
Buffer reserved stall rate = 0
Crossbar conflict stall rate = 0.000444444
latency change    = 0.00612411
throughput change = 0.00341297
Class 0:
Packet latency average = 15.0661
	minimum = 7
	maximum = 23
Network latency average = 15.0661
	minimum = 7
	maximum = 23
Slowest packet = 4857
Flit latency average = 15.0661
	minimum = 7
	maximum = 23
Slowest flit = 4857
Fragmentation average = 0
	minimum = 0
	maximum = 0
Injected packet rate average = 0.0502222
	minimum = 0.039 (at node 5)
	maximum = 0.061 (at node 1)
Accepted packet rate average = 0.0504444
	minimum = 0.042 (at node 0)
	maximum = 0.067 (at node 7)
Injected flit rate average = 0.0502222
	minimum = 0.039 (at node 5)
	maximum = 0.061 (at node 1)
Accepted flit rate average= 0.0504444
	minimum = 0.042 (at node 0)
	maximum = 0.067 (at node 7)
Injected packet length average = 1
Accepted packet length average = 1
Total in-flight flits = 6 (0 measured)
Buffer busy stall rate = 0.00122222
Buffer conflict stall rate = 0.000444444
Buffer full stall rate = 0
Buffer reserved stall rate = 0
Crossbar conflict stall rate = 0
latency change    = 0.022647
throughput change = 0.0319383
Class 0:
Packet latency average = 15.0844
	minimum = 7
	maximum = 23
Network latency average = 15.0844
	minimum = 7
	maximum = 23
Slowest packet = 4857
Flit latency average = 15.0844
	minimum = 7
	maximum = 23
Slowest flit = 4857
Fragmentation average = 0
	minimum = 0
	maximum = 0
Injected packet rate average = 0.0511667
	minimum = 0.045 (at node 5)
	maximum = 0.056 (at node 4)
Accepted packet rate average = 0.0513333
	minimum = 0.0435 (at node 3)
	maximum = 0.06 (at node 7)
Injected flit rate average = 0.0511667
	minimum = 0.045 (at node 5)
	maximum = 0.056 (at node 4)
Accepted flit rate average= 0.0513333
	minimum = 0.0435 (at node 3)
	maximum = 0.06 (at node 7)
Injected packet length average = 1
Accepted packet length average = 1
Total in-flight flits = 5 (0 measured)
Buffer busy stall rate = 0.00116667
Buffer conflict stall rate = 0.000611111
Buffer full stall rate = 0
Buffer reserved stall rate = 0
Crossbar conflict stall rate = 5.55556e-05
latency change    = 0.00121558
throughput change = 0.017316
Class 0:
Packet latency average = 15.0271
	minimum = 7
	maximum = 22
Network latency average = 15.0271
	minimum = 7
	maximum = 22
Slowest packet = 5400
Flit latency average = 15.0271
	minimum = 7
	maximum = 22
Slowest flit = 5400
Fragmentation average = 0
	minimum = 0
	maximum = 0
Injected packet rate average = 0.049
	minimum = 0.041 (at node 1)
	maximum = 0.065 (at node 0)
Accepted packet rate average = 0.0491111
	minimum = 0.038 (at node 7)
	maximum = 0.057 (at node 6)
Injected flit rate average = 0.049
	minimum = 0.041 (at node 1)
	maximum = 0.065 (at node 0)
Accepted flit rate average= 0.0491111
	minimum = 0.038 (at node 7)
	maximum = 0.057 (at node 6)
Injected packet length average = 1
Accepted packet length average = 1
Total in-flight flits = 4 (0 measured)
Buffer busy stall rate = 0.000444444
Buffer conflict stall rate = 0.001
Buffer full stall rate = 0
Buffer reserved stall rate = 0
Crossbar conflict stall rate = 0.000111111
latency change    = 0.00381085
throughput change = 0.0452489
Class 0:
Packet latency average = 14.9507
	minimum = 7
	maximum = 23
Network latency average = 14.9507
	minimum = 7
	maximum = 23
Slowest packet = 5863
Flit latency average = 14.9507
	minimum = 7
	maximum = 23
Slowest flit = 5863
Fragmentation average = 0
	minimum = 0
	maximum = 0
Injected packet rate average = 0.0507222
	minimum = 0.045 (at node 4)
	maximum = 0.0585 (at node 0)
Accepted packet rate average = 0.0507222
	minimum = 0.044 (at node 0)
	maximum = 0.0555 (at node 3)
Injected flit rate average = 0.0507222
	minimum = 0.045 (at node 4)
	maximum = 0.0585 (at node 0)
Accepted flit rate average= 0.0507222
	minimum = 0.044 (at node 0)
	maximum = 0.0555 (at node 3)
Injected packet length average = 1
Accepted packet length average = 1
Total in-flight flits = 5 (0 measured)
Buffer busy stall rate = 0.000666667
Buffer conflict stall rate = 0.000888889
Buffer full stall rate = 0
Buffer reserved stall rate = 0
Crossbar conflict stall rate = 5.55556e-05
latency change    = 0.00511262
throughput change = 0.0317634
Class 0:
Packet latency average = 15.0428
	minimum = 7
	maximum = 22
Network latency average = 15.0428
	minimum = 7
	maximum = 22
Slowest packet = 6551
Flit latency average = 15.0428
	minimum = 7
	maximum = 22
Slowest flit = 6551
Fragmentation average = 0
	minimum = 0
	maximum = 0
Injected packet rate average = 0.0467778
	minimum = 0.043 (at node 6)
	maximum = 0.056 (at node 1)
Accepted packet rate average = 0.0467778
	minimum = 0.038 (at node 0)
	maximum = 0.055 (at node 3)
Injected flit rate average = 0.0467778
	minimum = 0.043 (at node 6)
	maximum = 0.056 (at node 1)
Accepted flit rate average= 0.0467778
	minimum = 0.038 (at node 0)
	maximum = 0.055 (at node 3)
Injected packet length average = 1
Accepted packet length average = 1
Total in-flight flits = 5 (0 measured)
Buffer busy stall rate = 0.001
Buffer conflict stall rate = 0.000555556
Buffer full stall rate = 0
Buffer reserved stall rate = 0
Crossbar conflict stall rate = 0.000222222
latency change    = 0.00611879
throughput change = 0.084323
Class 0:
Packet latency average = 15.1676
	minimum = 7
	maximum = 22
Network latency average = 15.1676
	minimum = 7
	maximum = 22
Slowest packet = 6551
Flit latency average = 15.1676
	minimum = 7
	maximum = 22
Slowest flit = 6551
Fragmentation average = 0
	minimum = 0
	maximum = 0
Injected packet rate average = 0.0506111
	minimum = 0.0445 (at node 7)
	maximum = 0.0585 (at node 4)
Accepted packet rate average = 0.0503889
	minimum = 0.045 (at node 1)
	maximum = 0.0625 (at node 2)
Injected flit rate average = 0.0506111
	minimum = 0.0445 (at node 7)
	maximum = 0.0585 (at node 4)
Accepted flit rate average= 0.0503889
	minimum = 0.045 (at node 1)
	maximum = 0.0625 (at node 2)
Injected packet length average = 1
Accepted packet length average = 1
Total in-flight flits = 9 (0 measured)
Buffer busy stall rate = 0.001
Buffer conflict stall rate = 0.000888889
Buffer full stall rate = 0
Buffer reserved stall rate = 0
Crossbar conflict stall rate = 0.000333333
latency change    = 0.00823006
throughput change = 0.0716648
Class 0:
Packet latency average = 15.0782
	minimum = 7
	maximum = 22
Network latency average = 15.0782
	minimum = 7
	maximum = 22
Slowest packet = 7380
Flit latency average = 15.0782
	minimum = 7
	maximum = 22
Slowest flit = 7380
Fragmentation average = 0
	minimum = 0
	maximum = 0
Injected packet rate average = 0.0461111
	minimum = 0.035 (at node 2)
	maximum = 0.055 (at node 8)
Accepted packet rate average = 0.0468889
	minimum = 0.039 (at node 5)
	maximum = 0.053 (at node 6)
Injected flit rate average = 0.0461111
	minimum = 0.035 (at node 2)
	maximum = 0.055 (at node 8)
Accepted flit rate average= 0.0468889
	minimum = 0.039 (at node 5)
	maximum = 0.053 (at node 6)
Injected packet length average = 1
Accepted packet length average = 1
Total in-flight flits = 2 (0 measured)
Buffer busy stall rate = 0.000777778
Buffer conflict stall rate = 0.00122222
Buffer full stall rate = 0
Buffer reserved stall rate = 0
Crossbar conflict stall rate = 0
latency change    = 0.00592819
throughput change = 0.0746445
Class 0:
Packet latency average = 15.1484
	minimum = 7
	maximum = 23
Network latency average = 15.1484
	minimum = 7
	maximum = 23
Slowest packet = 7895
Flit latency average = 15.1484
	minimum = 7
	maximum = 23
Slowest flit = 7895
Fragmentation average = 0
	minimum = 0
	maximum = 0
Injected packet rate average = 0.0473333
	minimum = 0.039 (at node 2)
	maximum = 0.0565 (at node 8)
Accepted packet rate average = 0.0475556
	minimum = 0.0395 (at node 2)
	maximum = 0.0555 (at node 3)
Injected flit rate average = 0.0473333
	minimum = 0.039 (at node 2)
	maximum = 0.0565 (at node 8)
Accepted flit rate average= 0.0475556
	minimum = 0.0395 (at node 2)
	maximum = 0.0555 (at node 3)
Injected packet length average = 1
Accepted packet length average = 1
Total in-flight flits = 5 (0 measured)
Buffer busy stall rate = 0.001
Buffer conflict stall rate = 0.000944444
Buffer full stall rate = 0
Buffer reserved stall rate = 0
Crossbar conflict stall rate = 0.000277778
latency change    = 0.00463188
throughput change = 0.0140187
Class 0:
Packet latency average = 15.2215
	minimum = 7
	maximum = 22
Network latency average = 15.2215
	minimum = 7
	maximum = 22
Slowest packet = 8101
Flit latency average = 15.2215
	minimum = 7
	maximum = 22
Slowest flit = 8101
Fragmentation average = 0
	minimum = 0
	maximum = 0
Injected packet rate average = 0.0501111
	minimum = 0.041 (at node 2)
	maximum = 0.057 (at node 7)
Accepted packet rate average = 0.0496667
	minimum = 0.044 (at node 0)
	maximum = 0.055 (at node 2)
Injected flit rate average = 0.0501111
	minimum = 0.041 (at node 2)
	maximum = 0.057 (at node 7)
Accepted flit rate average= 0.0496667
	minimum = 0.044 (at node 0)
	maximum = 0.055 (at node 2)
Injected packet length average = 1
Accepted packet length average = 1
Total in-flight flits = 9 (0 measured)
Buffer busy stall rate = 0.00133333
Buffer conflict stall rate = 0.000777778
Buffer full stall rate = 0
Buffer reserved stall rate = 0
Crossbar conflict stall rate = 0.000222222
latency change    = 0.00480321
throughput change = 0.0425056
Class 0:
Packet latency average = 15.1377
	minimum = 7
	maximum = 22
Network latency average = 15.1377
	minimum = 7
	maximum = 22
Slowest packet = 8101
Flit latency average = 15.1377
	minimum = 7
	maximum = 22
Slowest flit = 8101
Fragmentation average = 0
	minimum = 0
	maximum = 0
Injected packet rate average = 0.0497222
	minimum = 0.0435 (at node 4)
	maximum = 0.058 (at node 6)
Accepted packet rate average = 0.0496111
	minimum = 0.045 (at node 0)
	maximum = 0.0555 (at node 3)
Injected flit rate average = 0.0497222
	minimum = 0.0435 (at node 4)
	maximum = 0.058 (at node 6)
Accepted flit rate average= 0.0496111
	minimum = 0.045 (at node 0)
	maximum = 0.0555 (at node 3)
Injected packet length average = 1
Accepted packet length average = 1
Total in-flight flits = 7 (0 measured)
Buffer busy stall rate = 0.00116667
Buffer conflict stall rate = 0.000833333
Buffer full stall rate = 0
Buffer reserved stall rate = 0
Crossbar conflict stall rate = 0.000166667
latency change    = 0.00553177
throughput change = 0.00111982
Class 0:
Packet latency average = 15.217
	minimum = 7
	maximum = 22
Network latency average = 15.217
	minimum = 7
	maximum = 22
Slowest packet = 9187
Flit latency average = 15.217
	minimum = 7
	maximum = 22
Slowest flit = 9187
Fragmentation average = 0
	minimum = 0
	maximum = 0
Injected packet rate average = 0.0521111
	minimum = 0.038 (at node 8)
	maximum = 0.064 (at node 6)
Accepted packet rate average = 0.0522222
	minimum = 0.038 (at node 8)
	maximum = 0.067 (at node 0)
Injected flit rate average = 0.0521111
	minimum = 0.038 (at node 8)
	maximum = 0.064 (at node 6)
Accepted flit rate average= 0.0522222
	minimum = 0.038 (at node 8)
	maximum = 0.067 (at node 0)
Injected packet length average = 1
Accepted packet length average = 1
Total in-flight flits = 6 (0 measured)
Buffer busy stall rate = 0.000888889
Buffer conflict stall rate = 0.000333333
Buffer full stall rate = 0
Buffer reserved stall rate = 0
Crossbar conflict stall rate = 0.000444444
latency change    = 0.00521017
throughput change = 0.05
Class 0:
Packet latency average = 15.0722
	minimum = 7
	maximum = 23
Network latency average = 15.0722
	minimum = 7
	maximum = 23
Slowest packet = 9475
Flit latency average = 15.0722
	minimum = 7
	maximum = 23
Slowest flit = 9475
Fragmentation average = 0
	minimum = 0
	maximum = 0
Injected packet rate average = 0.0526667
	minimum = 0.0475 (at node 5)
	maximum = 0.0655 (at node 6)
Accepted packet rate average = 0.0523333
	minimum = 0.045 (at node 8)
	maximum = 0.0625 (at node 0)
Injected flit rate average = 0.0526667
	minimum = 0.0475 (at node 5)
	maximum = 0.0655 (at node 6)
Accepted flit rate average= 0.0523333
	minimum = 0.045 (at node 8)
	maximum = 0.0625 (at node 0)
Injected packet length average = 1
Accepted packet length average = 1
Total in-flight flits = 13 (0 measured)
Buffer busy stall rate = 0.00122222
Buffer conflict stall rate = 0.000388889
Buffer full stall rate = 0
Buffer reserved stall rate = 0
Crossbar conflict stall rate = 0.0005
latency change    = 0.00960938
throughput change = 0.00212314
Class 0:
Packet latency average = 15.1617
	minimum = 7
	maximum = 23
Network latency average = 15.1617
	minimum = 7
	maximum = 23
Slowest packet = 10248
Flit latency average = 15.1617
	minimum = 7
	maximum = 23
Slowest flit = 10248
Fragmentation average = 0
	minimum = 0
	maximum = 0
Injected packet rate average = 0.0514444
	minimum = 0.04 (at node 6)
	maximum = 0.067 (at node 1)
Accepted packet rate average = 0.0522222
	minimum = 0.042 (at node 1)
	maximum = 0.067 (at node 3)
Injected flit rate average = 0.0514444
	minimum = 0.04 (at node 6)
	maximum = 0.067 (at node 1)
Accepted flit rate average= 0.0522222
	minimum = 0.042 (at node 1)
	maximum = 0.067 (at node 3)
Injected packet length average = 1
Accepted packet length average = 1
Total in-flight flits = 6 (0 measured)
Buffer busy stall rate = 0.00166667
Buffer conflict stall rate = 0.001
Buffer full stall rate = 0
Buffer reserved stall rate = 0
Crossbar conflict stall rate = 0.000222222
latency change    = 0.00590404
throughput change = 0.00212766
Class 0:
Packet latency average = 15.2419
	minimum = 7
	maximum = 24
Network latency average = 15.2419
	minimum = 7
	maximum = 24
Slowest packet = 10467
Flit latency average = 15.2419
	minimum = 7
	maximum = 24
Slowest flit = 10467
Fragmentation average = 0
	minimum = 0
	maximum = 0
Injected packet rate average = 0.0529444
	minimum = 0.0405 (at node 6)
	maximum = 0.0635 (at node 1)
Accepted packet rate average = 0.0532778
	minimum = 0.046 (at node 1)
	maximum = 0.071 (at node 7)
Injected flit rate average = 0.0529444
	minimum = 0.0405 (at node 6)
	maximum = 0.0635 (at node 1)
Accepted flit rate average= 0.0532778
	minimum = 0.046 (at node 1)
	maximum = 0.071 (at node 7)
Injected packet length average = 1
Accepted packet length average = 1
Total in-flight flits = 7 (0 measured)
Buffer busy stall rate = 0.00188889
Buffer conflict stall rate = 0.00127778
Buffer full stall rate = 0
Buffer reserved stall rate = 0
Crossbar conflict stall rate = 0.000222222
latency change    = 0.00526289
throughput change = 0.0198123
Class 0:
Packet latency average = 14.8326
	minimum = 7
	maximum = 21
Network latency average = 14.8326
	minimum = 7
	maximum = 21
Slowest packet = 10886
Flit latency average = 14.8326
	minimum = 7
	maximum = 21
Slowest flit = 10886
Fragmentation average = 0
	minimum = 0
	maximum = 0
Injected packet rate average = 0.0527778
	minimum = 0.042 (at node 5)
	maximum = 0.065 (at node 0)
Accepted packet rate average = 0.0531111
	minimum = 0.047 (at node 1)
	maximum = 0.059 (at node 0)
Injected flit rate average = 0.0527778
	minimum = 0.042 (at node 5)
	maximum = 0.065 (at node 0)
Accepted flit rate average= 0.0531111
	minimum = 0.047 (at node 1)
	maximum = 0.059 (at node 0)
Injected packet length average = 1
Accepted packet length average = 1
Total in-flight flits = 4 (0 measured)
Buffer busy stall rate = 0.00111111
Buffer conflict stall rate = 0.000555556
Buffer full stall rate = 0
Buffer reserved stall rate = 0
Crossbar conflict stall rate = 0.000111111
latency change    = 0.0275934
throughput change = 0.00313808
Class 0:
Packet latency average = 15.0831
	minimum = 7
	maximum = 21
Network latency average = 15.0831
	minimum = 7
	maximum = 21
Slowest packet = 10886
Flit latency average = 15.0831
	minimum = 7
	maximum = 21
Slowest flit = 10886
Fragmentation average = 0
	minimum = 0
	maximum = 0
Injected packet rate average = 0.0507778
	minimum = 0.0465 (at node 1)
	maximum = 0.054 (at node 4)
Accepted packet rate average = 0.0508333
	minimum = 0.0435 (at node 1)
	maximum = 0.0565 (at node 0)
Injected flit rate average = 0.0507778
	minimum = 0.0465 (at node 1)
	maximum = 0.054 (at node 4)
Accepted flit rate average= 0.0508333
	minimum = 0.0435 (at node 1)
	maximum = 0.0565 (at node 0)
Injected packet length average = 1
Accepted packet length average = 1
Total in-flight flits = 6 (0 measured)
Buffer busy stall rate = 0.000944444
Buffer conflict stall rate = 0.0005
Buffer full stall rate = 0
Buffer reserved stall rate = 0
Crossbar conflict stall rate = 0.000222222
latency change    = 0.016603
throughput change = 0.0448087
Class 0:
Packet latency average = 14.8481
	minimum = 7
	maximum = 22
Network latency average = 14.8481
	minimum = 7
	maximum = 22
Slowest packet = 11745
Flit latency average = 14.8481
	minimum = 7
	maximum = 22
Slowest flit = 11745
Fragmentation average = 0
	minimum = 0
	maximum = 0
Injected packet rate average = 0.0491111
	minimum = 0.036 (at node 7)
	maximum = 0.058 (at node 8)
Accepted packet rate average = 0.049
	minimum = 0.037 (at node 0)
	maximum = 0.063 (at node 5)
Injected flit rate average = 0.0491111
	minimum = 0.036 (at node 7)
	maximum = 0.058 (at node 8)
Accepted flit rate average= 0.049
	minimum = 0.037 (at node 0)
	maximum = 0.063 (at node 5)
Injected packet length average = 1
Accepted packet length average = 1
Total in-flight flits = 7 (0 measured)
Buffer busy stall rate = 0.001
Buffer conflict stall rate = 0.000666667
Buffer full stall rate = 0
Buffer reserved stall rate = 0
Crossbar conflict stall rate = 0.000333333
latency change    = 0.0158261
throughput change = 0.037415
Class 0:
Packet latency average = 15.045
	minimum = 7
	maximum = 22
Network latency average = 15.045
	minimum = 7
	maximum = 22
Slowest packet = 11745
Flit latency average = 15.045
	minimum = 7
	maximum = 22
Slowest flit = 11745
Fragmentation average = 0
	minimum = 0
	maximum = 0
Injected packet rate average = 0.0494444
	minimum = 0.043 (at node 7)
	maximum = 0.0555 (at node 4)
Accepted packet rate average = 0.0493889
	minimum = 0.0415 (at node 4)
	maximum = 0.0595 (at node 5)
Injected flit rate average = 0.0494444
	minimum = 0.043 (at node 7)
	maximum = 0.0555 (at node 4)
Accepted flit rate average= 0.0493889
	minimum = 0.0415 (at node 4)
	maximum = 0.0595 (at node 5)
Injected packet length average = 1
Accepted packet length average = 1
Total in-flight flits = 7 (0 measured)
Buffer busy stall rate = 0.00111111
Buffer conflict stall rate = 0.000722222
Buffer full stall rate = 0
Buffer reserved stall rate = 0
Crossbar conflict stall rate = 0.000222222
latency change    = 0.0130889
throughput change = 0.00787402
Class 0:
Packet latency average = 15.0656
	minimum = 7
	maximum = 22
Network latency average = 15.0656
	minimum = 7
	maximum = 22
Slowest packet = 12738
Flit latency average = 15.0656
	minimum = 7
	maximum = 22
Slowest flit = 12738
Fragmentation average = 0
	minimum = 0
	maximum = 0
Injected packet rate average = 0.0503333
	minimum = 0.032 (at node 5)
	maximum = 0.066 (at node 6)
Accepted packet rate average = 0.0507778
	minimum = 0.04 (at node 5)
	maximum = 0.064 (at node 8)
Injected flit rate average = 0.0503333
	minimum = 0.032 (at node 5)
	maximum = 0.066 (at node 6)
Accepted flit rate average= 0.0507778
	minimum = 0.04 (at node 5)
	maximum = 0.064 (at node 8)
Injected packet length average = 1
Accepted packet length average = 1
Total in-flight flits = 3 (0 measured)
Buffer busy stall rate = 0.000777778
Buffer conflict stall rate = 0.00144444
Buffer full stall rate = 0
Buffer reserved stall rate = 0
Crossbar conflict stall rate = 0.000444444
latency change    = 0.00137074
throughput change = 0.0273523
Class 0:
Packet latency average = 15.0491
	minimum = 7
	maximum = 22
Network latency average = 15.0491
	minimum = 7
	maximum = 22
Slowest packet = 12738
Flit latency average = 15.0491
	minimum = 7
	maximum = 22
Slowest flit = 12738
Fragmentation average = 0
	minimum = 0
	maximum = 0
Injected packet rate average = 0.0489444
	minimum = 0.039 (at node 5)
	maximum = 0.0555 (at node 6)
Accepted packet rate average = 0.0486667
	minimum = 0.041 (at node 5)
	maximum = 0.054 (at node 8)
Injected flit rate average = 0.0489444
	minimum = 0.039 (at node 5)
	maximum = 0.0555 (at node 6)
Accepted flit rate average= 0.0486667
	minimum = 0.041 (at node 5)
	maximum = 0.054 (at node 8)
Injected packet length average = 1
Accepted packet length average = 1
Total in-flight flits = 12 (0 measured)
Buffer busy stall rate = 0.001
Buffer conflict stall rate = 0.00111111
Buffer full stall rate = 0
Buffer reserved stall rate = 0
Crossbar conflict stall rate = 0.0005
latency change    = 0.00110032
throughput change = 0.043379
Class 0:
Packet latency average = 15.1509
	minimum = 7
	maximum = 22
Network latency average = 15.1509
	minimum = 7
	maximum = 22
Slowest packet = 13843
Flit latency average = 15.1509
	minimum = 7
	maximum = 22
Slowest flit = 13843
Fragmentation average = 0
	minimum = 0
	maximum = 0
Injected packet rate average = 0.0464444
	minimum = 0.039 (at node 6)
	maximum = 0.054 (at node 5)
Accepted packet rate average = 0.0471111
	minimum = 0.039 (at node 1)
	maximum = 0.056 (at node 5)
Injected flit rate average = 0.0464444
	minimum = 0.039 (at node 6)
	maximum = 0.054 (at node 5)
Accepted flit rate average= 0.0471111
	minimum = 0.039 (at node 1)
	maximum = 0.056 (at node 5)
Injected packet length average = 1
Accepted packet length average = 1
Total in-flight flits = 6 (0 measured)
Buffer busy stall rate = 0.000444444
Buffer conflict stall rate = 0.000666667
Buffer full stall rate = 0
Buffer reserved stall rate = 0
Crossbar conflict stall rate = 0.000111111
latency change    = 0.00672279
throughput change = 0.0330189
Class 0:
Packet latency average = 15.1834
	minimum = 7
	maximum = 22
Network latency average = 15.1834
	minimum = 7
	maximum = 22
Slowest packet = 13843
Flit latency average = 15.1834
	minimum = 7
	maximum = 22
Slowest flit = 13843
Fragmentation average = 0
	minimum = 0
	maximum = 0
Injected packet rate average = 0.0476667
	minimum = 0.043 (at node 2)
	maximum = 0.0545 (at node 0)
Accepted packet rate average = 0.0481667
	minimum = 0.0405 (at node 1)
	maximum = 0.0545 (at node 4)
Injected flit rate average = 0.0476667
	minimum = 0.043 (at node 2)
	maximum = 0.0545 (at node 0)
Accepted flit rate average= 0.0481667
	minimum = 0.0405 (at node 1)
	maximum = 0.0545 (at node 4)
Injected packet length average = 1
Accepted packet length average = 1
Total in-flight flits = 3 (0 measured)
Buffer busy stall rate = 0.000777778
Buffer conflict stall rate = 0.00105556
Buffer full stall rate = 0
Buffer reserved stall rate = 0
Crossbar conflict stall rate = 0.000333333
latency change    = 0.00213705
throughput change = 0.0219146
Class 0:
Packet latency average = 15.0434
	minimum = 7
	maximum = 22
Network latency average = 15.0434
	minimum = 7
	maximum = 22
Slowest packet = 14440
Flit latency average = 15.0434
	minimum = 7
	maximum = 22
Slowest flit = 14440
Fragmentation average = 0
	minimum = 0
	maximum = 0
Injected packet rate average = 0.0537778
	minimum = 0.047 (at node 3)
	maximum = 0.06 (at node 1)
Accepted packet rate average = 0.0537778
	minimum = 0.045 (at node 3)
	maximum = 0.064 (at node 4)
Injected flit rate average = 0.0537778
	minimum = 0.047 (at node 3)
	maximum = 0.06 (at node 1)
Accepted flit rate average= 0.0537778
	minimum = 0.045 (at node 3)
	maximum = 0.064 (at node 4)
Injected packet length average = 1
Accepted packet length average = 1
Total in-flight flits = 3 (0 measured)
Buffer busy stall rate = 0.00166667
Buffer conflict stall rate = 0.00133333
Buffer full stall rate = 0
Buffer reserved stall rate = 0
Crossbar conflict stall rate = 0.000555556
latency change    = 0.00930659
throughput change = 0.104339
Class 0:
Packet latency average = 15.2383
	minimum = 7
	maximum = 22
Network latency average = 15.2383
	minimum = 7
	maximum = 22
Slowest packet = 14440
Flit latency average = 15.2383
	minimum = 7
	maximum = 22
Slowest flit = 14440
Fragmentation average = 0
	minimum = 0
	maximum = 0
Injected packet rate average = 0.0524444
	minimum = 0.0445 (at node 0)
	maximum = 0.0665 (at node 7)
Accepted packet rate average = 0.0524444
	minimum = 0.048 (at node 3)
	maximum = 0.058 (at node 4)
Injected flit rate average = 0.0524444
	minimum = 0.0445 (at node 0)
	maximum = 0.0665 (at node 7)
Accepted flit rate average= 0.0524444
	minimum = 0.048 (at node 3)
	maximum = 0.058 (at node 4)
Injected packet length average = 1
Accepted packet length average = 1
Total in-flight flits = 3 (0 measured)
Buffer busy stall rate = 0.00144444
Buffer conflict stall rate = 0.00105556
Buffer full stall rate = 0
Buffer reserved stall rate = 0
Crossbar conflict stall rate = 0.000611111
latency change    = 0.012794
throughput change = 0.0254237
Class 0:
Packet latency average = 15.0465
	minimum = 7
	maximum = 23
Network latency average = 15.0465
	minimum = 7
	maximum = 23
Slowest packet = 15607
Flit latency average = 15.0465
	minimum = 7
	maximum = 23
Slowest flit = 15607
Fragmentation average = 0
	minimum = 0
	maximum = 0
Injected packet rate average = 0.0505556
	minimum = 0.041 (at node 7)
	maximum = 0.057 (at node 6)
Accepted packet rate average = 0.0502222
	minimum = 0.041 (at node 8)
	maximum = 0.057 (at node 4)
Injected flit rate average = 0.0505556
	minimum = 0.041 (at node 7)
	maximum = 0.057 (at node 6)
Accepted flit rate average= 0.0502222
	minimum = 0.041 (at node 8)
	maximum = 0.057 (at node 4)
Injected packet length average = 1
Accepted packet length average = 1
Total in-flight flits = 6 (0 measured)
Buffer busy stall rate = 0.00133333
Buffer conflict stall rate = 0.000888889
Buffer full stall rate = 0
Buffer reserved stall rate = 0
Crossbar conflict stall rate = 0.000666667
latency change    = 0.012753
throughput change = 0.0442478
Class 0:
Packet latency average = 15.0734
	minimum = 7
	maximum = 23
Network latency average = 15.0734
	minimum = 7
	maximum = 23
Slowest packet = 15607
Flit latency average = 15.0734
	minimum = 7
	maximum = 23
Slowest flit = 15607
Fragmentation average = 0
	minimum = 0
	maximum = 0
Injected packet rate average = 0.05
	minimum = 0.04 (at node 3)
	maximum = 0.06 (at node 6)
Accepted packet rate average = 0.0499444
	minimum = 0.0435 (at node 2)
	maximum = 0.0565 (at node 4)
Injected flit rate average = 0.05
	minimum = 0.04 (at node 3)
	maximum = 0.06 (at node 6)
Accepted flit rate average= 0.0499444
	minimum = 0.0435 (at node 2)
	maximum = 0.0565 (at node 4)
Injected packet length average = 1
Accepted packet length average = 1
Total in-flight flits = 4 (0 measured)
Buffer busy stall rate = 0.0015
Buffer conflict stall rate = 0.000888889
Buffer full stall rate = 0
Buffer reserved stall rate = 0
Crossbar conflict stall rate = 0.000555556
latency change    = 0.00178823
throughput change = 0.00556174
Class 0:
Packet latency average = 15.0485
	minimum = 7
	maximum = 22
Network latency average = 15.0485
	minimum = 7
	maximum = 22
Slowest packet = 16678
Flit latency average = 15.0485
	minimum = 7
	maximum = 22
Slowest flit = 16678
Fragmentation average = 0
	minimum = 0
	maximum = 0
Injected packet rate average = 0.0555556
	minimum = 0.046 (at node 8)
	maximum = 0.065 (at node 3)
Accepted packet rate average = 0.055
	minimum = 0.04 (at node 0)
	maximum = 0.064 (at node 1)
Injected flit rate average = 0.0555556
	minimum = 0.046 (at node 8)
	maximum = 0.065 (at node 3)
Accepted flit rate average= 0.055
	minimum = 0.04 (at node 0)
	maximum = 0.064 (at node 1)
Injected packet length average = 1
Accepted packet length average = 1
Total in-flight flits = 9 (0 measured)
Buffer busy stall rate = 0.000888889
Buffer conflict stall rate = 0.000777778
Buffer full stall rate = 0
Buffer reserved stall rate = 0
Crossbar conflict stall rate = 0.000333333
latency change    = 0.00165665
throughput change = 0.0919192
Class 0:
Packet latency average = 15.0128
	minimum = 7
	maximum = 22
Network latency average = 15.0128
	minimum = 7
	maximum = 22
Slowest packet = 16678
Flit latency average = 15.0128
	minimum = 7
	maximum = 22
Slowest flit = 16678
Fragmentation average = 0
	minimum = 0
	maximum = 0
Injected packet rate average = 0.0522778
	minimum = 0.0465 (at node 8)
	maximum = 0.061 (at node 0)
Accepted packet rate average = 0.0521667
	minimum = 0.0435 (at node 0)
	maximum = 0.061 (at node 3)
Injected flit rate average = 0.0522778
	minimum = 0.0465 (at node 8)
	maximum = 0.061 (at node 0)
Accepted flit rate average= 0.0521667
	minimum = 0.0435 (at node 0)
	maximum = 0.061 (at node 3)
Injected packet length average = 1
Accepted packet length average = 1
Total in-flight flits = 6 (0 measured)
Buffer busy stall rate = 0.00105556
Buffer conflict stall rate = 0.00105556
Buffer full stall rate = 0
Buffer reserved stall rate = 0
Crossbar conflict stall rate = 0.000333333
latency change    = 0.00237833
throughput change = 0.0543131
Class 0:
Packet latency average = 15.3409
	minimum = 7
	maximum = 22
Network latency average = 15.3409
	minimum = 7
	maximum = 22
Slowest packet = 17428
Flit latency average = 15.3409
	minimum = 7
	maximum = 22
Slowest flit = 17428
Fragmentation average = 0
	minimum = 0
	maximum = 0
Injected packet rate average = 0.0542222
	minimum = 0.045 (at node 0)
	maximum = 0.062 (at node 3)
Accepted packet rate average = 0.0541111
	minimum = 0.045 (at node 3)
	maximum = 0.06 (at node 8)
Injected flit rate average = 0.0542222
	minimum = 0.045 (at node 0)
	maximum = 0.062 (at node 3)
Accepted flit rate average= 0.0541111
	minimum = 0.045 (at node 3)
	maximum = 0.06 (at node 8)
Injected packet length average = 1
Accepted packet length average = 1
Total in-flight flits = 7 (0 measured)
Buffer busy stall rate = 0.001
Buffer conflict stall rate = 0.000666667
Buffer full stall rate = 0
Buffer reserved stall rate = 0
Crossbar conflict stall rate = 0
latency change    = 0.0213862
throughput change = 0.0359343
Class 0:
Packet latency average = 15.0682
	minimum = 7
	maximum = 22
Network latency average = 15.0682
	minimum = 7
	maximum = 22
Slowest packet = 17428
Flit latency average = 15.0682
	minimum = 7
	maximum = 22
Slowest flit = 17428
Fragmentation average = 0
	minimum = 0
	maximum = 0
Injected packet rate average = 0.0521667
	minimum = 0.046 (at node 0)
	maximum = 0.055 (at node 3)
Accepted packet rate average = 0.0521667
	minimum = 0.045 (at node 5)
	maximum = 0.057 (at node 4)
Injected flit rate average = 0.0521667
	minimum = 0.046 (at node 0)
	maximum = 0.055 (at node 3)
Accepted flit rate average= 0.0521667
	minimum = 0.045 (at node 5)
	maximum = 0.057 (at node 4)
Injected packet length average = 1
Accepted packet length average = 1
Total in-flight flits = 6 (0 measured)
Buffer busy stall rate = 0.000944444
Buffer conflict stall rate = 0.000888889
Buffer full stall rate = 0
Buffer reserved stall rate = 0
Crossbar conflict stall rate = 0.000277778
latency change    = 0.0180981
throughput change = 0.0372737
Class 0:
Packet latency average = 14.9753
	minimum = 7
	maximum = 22
Network latency average = 14.9753
	minimum = 7
	maximum = 22
Slowest packet = 18170
Flit latency average = 14.9753
	minimum = 7
	maximum = 22
Slowest flit = 18170
Fragmentation average = 0
	minimum = 0
	maximum = 0
Injected packet rate average = 0.0495556
	minimum = 0.039 (at node 1)
	maximum = 0.059 (at node 3)
Accepted packet rate average = 0.0495556
	minimum = 0.041 (at node 6)
	maximum = 0.063 (at node 2)
Injected flit rate average = 0.0495556
	minimum = 0.039 (at node 1)
	maximum = 0.059 (at node 3)
Accepted flit rate average= 0.0495556
	minimum = 0.041 (at node 6)
	maximum = 0.063 (at node 2)
Injected packet length average = 1
Accepted packet length average = 1
Total in-flight flits = 6 (0 measured)
Buffer busy stall rate = 0.000555556
Buffer conflict stall rate = 0.00111111
Buffer full stall rate = 0
Buffer reserved stall rate = 0
Crossbar conflict stall rate = 0
latency change    = 0.00619828
throughput change = 0.0526906
Class 0:
Packet latency average = 15.1054
	minimum = 7
	maximum = 22
Network latency average = 15.1054
	minimum = 7
	maximum = 22
Slowest packet = 18170
Flit latency average = 15.1054
	minimum = 7
	maximum = 22
Slowest flit = 18170
Fragmentation average = 0
	minimum = 0
	maximum = 0
Injected packet rate average = 0.0478889
	minimum = 0.0385 (at node 1)
	maximum = 0.0535 (at node 3)
Accepted packet rate average = 0.0479444
	minimum = 0.042 (at node 6)
	maximum = 0.0515 (at node 2)
Injected flit rate average = 0.0478889
	minimum = 0.0385 (at node 1)
	maximum = 0.0535 (at node 3)
Accepted flit rate average= 0.0479444
	minimum = 0.042 (at node 6)
	maximum = 0.0515 (at node 2)
Injected packet length average = 1
Accepted packet length average = 1
Total in-flight flits = 5 (0 measured)
Buffer busy stall rate = 0.000722222
Buffer conflict stall rate = 0.000888889
Buffer full stall rate = 0
Buffer reserved stall rate = 0
Crossbar conflict stall rate = 0.000222222
latency change    = 0.00861344
throughput change = 0.0336037
Class 0:
Packet latency average = 14.6062
	minimum = 7
	maximum = 22
Network latency average = 14.6062
	minimum = 7
	maximum = 22
Slowest packet = 19347
Flit latency average = 14.6062
	minimum = 7
	maximum = 22
Slowest flit = 19347
Fragmentation average = 0
	minimum = 0
	maximum = 0
Injected packet rate average = 0.0508889
	minimum = 0.043 (at node 8)
	maximum = 0.061 (at node 7)
Accepted packet rate average = 0.0502222
	minimum = 0.039 (at node 8)
	maximum = 0.059 (at node 6)
Injected flit rate average = 0.0508889
	minimum = 0.043 (at node 8)
	maximum = 0.061 (at node 7)
Accepted flit rate average= 0.0502222
	minimum = 0.039 (at node 8)
	maximum = 0.059 (at node 6)
Injected packet length average = 1
Accepted packet length average = 1
Total in-flight flits = 11 (0 measured)
Buffer busy stall rate = 0.001
Buffer conflict stall rate = 0.001
Buffer full stall rate = 0
Buffer reserved stall rate = 0
Crossbar conflict stall rate = 0.000222222
latency change    = 0.0341808
throughput change = 0.045354
Class 0:
Packet latency average = 14.8342
	minimum = 7
	maximum = 23
Network latency average = 14.8342
	minimum = 7
	maximum = 23
Slowest packet = 19460
Flit latency average = 14.8342
	minimum = 7
	maximum = 23
Slowest flit = 19460
Fragmentation average = 0
	minimum = 0
	maximum = 0
Injected packet rate average = 0.0506111
	minimum = 0.0435 (at node 8)
	maximum = 0.056 (at node 2)
Accepted packet rate average = 0.0506111
	minimum = 0.0455 (at node 7)
	maximum = 0.0565 (at node 2)
Injected flit rate average = 0.0506111
	minimum = 0.0435 (at node 8)
	maximum = 0.056 (at node 2)
Accepted flit rate average= 0.0506111
	minimum = 0.0455 (at node 7)
	maximum = 0.0565 (at node 2)
Injected packet length average = 1
Accepted packet length average = 1
Total in-flight flits = 5 (0 measured)
Buffer busy stall rate = 0.00155556
Buffer conflict stall rate = 0.00116667
Buffer full stall rate = 0
Buffer reserved stall rate = 0
Crossbar conflict stall rate = 0.000277778
latency change    = 0.0153734
throughput change = 0.00768386
Class 0:
Packet latency average = 14.9888
	minimum = 7
	maximum = 22
Network latency average = 14.9888
	minimum = 7
	maximum = 22
Slowest packet = 19943
Flit latency average = 14.9888
	minimum = 7
	maximum = 22
Slowest flit = 19943
Fragmentation average = 0
	minimum = 0
	maximum = 0
Injected packet rate average = 0.05
	minimum = 0.035 (at node 1)
	maximum = 0.067 (at node 6)
Accepted packet rate average = 0.0497778
	minimum = 0.033 (at node 0)
	maximum = 0.061 (at node 6)
Injected flit rate average = 0.05
	minimum = 0.035 (at node 1)
	maximum = 0.067 (at node 6)
Accepted flit rate average= 0.0497778
	minimum = 0.033 (at node 0)
	maximum = 0.061 (at node 6)
Injected packet length average = 1
Accepted packet length average = 1
Total in-flight flits = 7 (0 measured)
Buffer busy stall rate = 0.00111111
Buffer conflict stall rate = 0.000444444
Buffer full stall rate = 0
Buffer reserved stall rate = 0
Crossbar conflict stall rate = 0.000222222
latency change    = 0.0103138
throughput change = 0.0167411
Class 0:
Packet latency average = 14.8168
	minimum = 7
	maximum = 22
Network latency average = 14.8168
	minimum = 7
	maximum = 22
Slowest packet = 19943
Flit latency average = 14.8168
	minimum = 7
	maximum = 22
Slowest flit = 19943
Fragmentation average = 0
	minimum = 0
	maximum = 0
Injected packet rate average = 0.0476667
	minimum = 0.037 (at node 1)
	maximum = 0.0585 (at node 7)
Accepted packet rate average = 0.0476111
	minimum = 0.0405 (at node 0)
	maximum = 0.058 (at node 6)
Injected flit rate average = 0.0476667
	minimum = 0.037 (at node 1)
	maximum = 0.0585 (at node 7)
Accepted flit rate average= 0.0476111
	minimum = 0.0405 (at node 0)
	maximum = 0.058 (at node 6)
Injected packet length average = 1
Accepted packet length average = 1
Total in-flight flits = 6 (0 measured)
Buffer busy stall rate = 0.00105556
Buffer conflict stall rate = 0.0005
Buffer full stall rate = 0
Buffer reserved stall rate = 0
Crossbar conflict stall rate = 0.000166667
latency change    = 0.0116109
throughput change = 0.0455076
Class 0:
Packet latency average = 14.7202
	minimum = 7
	maximum = 23
Network latency average = 14.7202
	minimum = 7
	maximum = 23
Slowest packet = 20885
Flit latency average = 14.7202
	minimum = 7
	maximum = 23
Slowest flit = 20885
Fragmentation average = 0
	minimum = 0
	maximum = 0
Injected packet rate average = 0.0484444
	minimum = 0.042 (at node 0)
	maximum = 0.058 (at node 3)
Accepted packet rate average = 0.0484444
	minimum = 0.043 (at node 8)
	maximum = 0.058 (at node 3)
Injected flit rate average = 0.0484444
	minimum = 0.042 (at node 0)
	maximum = 0.058 (at node 3)
Accepted flit rate average= 0.0484444
	minimum = 0.043 (at node 8)
	maximum = 0.058 (at node 3)
Injected packet length average = 1
Accepted packet length average = 1
Total in-flight flits = 6 (0 measured)
Buffer busy stall rate = 0.001
Buffer conflict stall rate = 0.001
Buffer full stall rate = 0
Buffer reserved stall rate = 0
Crossbar conflict stall rate = 0
latency change    = 0.00656373
throughput change = 0.0172018
Class 0:
Packet latency average = 14.8152
	minimum = 7
	maximum = 23
Network latency average = 14.8152
	minimum = 7
	maximum = 23
Slowest packet = 20885
Flit latency average = 14.8152
	minimum = 7
	maximum = 23
Slowest flit = 20885
Fragmentation average = 0
	minimum = 0
	maximum = 0
Injected packet rate average = 0.0482778
	minimum = 0.042 (at node 1)
	maximum = 0.059 (at node 3)
Accepted packet rate average = 0.0483889
	minimum = 0.041 (at node 4)
	maximum = 0.0585 (at node 3)
Injected flit rate average = 0.0482778
	minimum = 0.042 (at node 1)
	maximum = 0.059 (at node 3)
Accepted flit rate average= 0.0483889
	minimum = 0.041 (at node 4)
	maximum = 0.0585 (at node 3)
Injected packet length average = 1
Accepted packet length average = 1
Total in-flight flits = 4 (0 measured)
Buffer busy stall rate = 0.000722222
Buffer conflict stall rate = 0.000944444
Buffer full stall rate = 0
Buffer reserved stall rate = 0
Crossbar conflict stall rate = 0.000111111
latency change    = 0.00641043
throughput change = 0.00114811
Class 0:
Packet latency average = 15.2619
	minimum = 7
	maximum = 23
Network latency average = 15.2619
	minimum = 7
	maximum = 23
Slowest packet = 21957
Flit latency average = 15.2619
	minimum = 7
	maximum = 23
Slowest flit = 21957
Fragmentation average = 0
	minimum = 0
	maximum = 0
Injected packet rate average = 0.0498889
	minimum = 0.034 (at node 7)
	maximum = 0.06 (at node 1)
Accepted packet rate average = 0.0492222
	minimum = 0.042 (at node 6)
	maximum = 0.066 (at node 1)
Injected flit rate average = 0.0498889
	minimum = 0.034 (at node 7)
	maximum = 0.06 (at node 1)
Accepted flit rate average= 0.0492222
	minimum = 0.042 (at node 6)
	maximum = 0.066 (at node 1)
Injected packet length average = 1
Accepted packet length average = 1
Total in-flight flits = 10 (0 measured)
Buffer busy stall rate = 0.000666667
Buffer conflict stall rate = 0.00111111
Buffer full stall rate = 0
Buffer reserved stall rate = 0
Crossbar conflict stall rate = 0.000444444
latency change    = 0.0292688
throughput change = 0.01693
Class 0:
Packet latency average = 15.1839
	minimum = 7
	maximum = 23
Network latency average = 15.1839
	minimum = 7
	maximum = 23
Slowest packet = 21957
Flit latency average = 15.1839
	minimum = 7
	maximum = 23
Slowest flit = 21957
Fragmentation average = 0
	minimum = 0
	maximum = 0
Injected packet rate average = 0.0492222
	minimum = 0.041 (at node 7)
	maximum = 0.0575 (at node 0)
Accepted packet rate average = 0.0489444
	minimum = 0.0405 (at node 3)
	maximum = 0.056 (at node 0)
Injected flit rate average = 0.0492222
	minimum = 0.041 (at node 7)
	maximum = 0.0575 (at node 0)
Accepted flit rate average= 0.0489444
	minimum = 0.0405 (at node 3)
	maximum = 0.056 (at node 0)
Injected packet length average = 1
Accepted packet length average = 1
Total in-flight flits = 9 (0 measured)
Buffer busy stall rate = 0.000944444
Buffer conflict stall rate = 0.000944444
Buffer full stall rate = 0
Buffer reserved stall rate = 0
Crossbar conflict stall rate = 0.000277778
latency change    = 0.00513499
throughput change = 0.00567537
Class 0:
Packet latency average = 14.8422
	minimum = 7
	maximum = 22
Network latency average = 14.8422
	minimum = 7
	maximum = 22
Slowest packet = 22680
Flit latency average = 14.8422
	minimum = 7
	maximum = 22
Slowest flit = 22680
Fragmentation average = 0
	minimum = 0
	maximum = 0
Injected packet rate average = 0.0516667
	minimum = 0.044 (at node 0)
	maximum = 0.064 (at node 7)
Accepted packet rate average = 0.0521111
	minimum = 0.043 (at node 4)
	maximum = 0.058 (at node 1)
Injected flit rate average = 0.0516667
	minimum = 0.044 (at node 0)
	maximum = 0.064 (at node 7)
Accepted flit rate average= 0.0521111
	minimum = 0.043 (at node 4)
	maximum = 0.058 (at node 1)
Injected packet length average = 1
Accepted packet length average = 1
Total in-flight flits = 5 (0 measured)
Buffer busy stall rate = 0.00111111
Buffer conflict stall rate = 0.000444444
Buffer full stall rate = 0
Buffer reserved stall rate = 0
Crossbar conflict stall rate = 0.000666667
latency change    = 0.0230198
throughput change = 0.0607676
Class 0:
Packet latency average = 14.8504
	minimum = 7
	maximum = 22
Network latency average = 14.8504
	minimum = 7
	maximum = 22
Slowest packet = 22680
Flit latency average = 14.8504
	minimum = 7
	maximum = 22
Slowest flit = 22680
Fragmentation average = 0
	minimum = 0
	maximum = 0
Injected packet rate average = 0.0493333
	minimum = 0.038 (at node 0)
	maximum = 0.0625 (at node 7)
Accepted packet rate average = 0.0493889
	minimum = 0.045 (at node 4)
	maximum = 0.0545 (at node 6)
Injected flit rate average = 0.0493333
	minimum = 0.038 (at node 0)
	maximum = 0.0625 (at node 7)
Accepted flit rate average= 0.0493889
	minimum = 0.045 (at node 4)
	maximum = 0.0545 (at node 6)
Injected packet length average = 1
Accepted packet length average = 1
Total in-flight flits = 8 (0 measured)
Buffer busy stall rate = 0.000888889
Buffer conflict stall rate = 0.000555556
Buffer full stall rate = 0
Buffer reserved stall rate = 0
Crossbar conflict stall rate = 0.000388889
latency change    = 0.000550572
throughput change = 0.0551181
Class 0:
Packet latency average = 15.1692
	minimum = 7
	maximum = 23
Network latency average = 15.1692
	minimum = 7
	maximum = 23
Slowest packet = 23417
Flit latency average = 15.1692
	minimum = 7
	maximum = 23
Slowest flit = 23417
Fragmentation average = 0
	minimum = 0
	maximum = 0
Injected packet rate average = 0.0502222
	minimum = 0.041 (at node 2)
	maximum = 0.06 (at node 4)
Accepted packet rate average = 0.0505556
	minimum = 0.037 (at node 4)
	maximum = 0.063 (at node 2)
Injected flit rate average = 0.0502222
	minimum = 0.041 (at node 2)
	maximum = 0.06 (at node 4)
Accepted flit rate average= 0.0505556
	minimum = 0.037 (at node 4)
	maximum = 0.063 (at node 2)
Injected packet length average = 1
Accepted packet length average = 1
Total in-flight flits = 5 (0 measured)
Buffer busy stall rate = 0.00122222
Buffer conflict stall rate = 0.000333333
Buffer full stall rate = 0
Buffer reserved stall rate = 0
Crossbar conflict stall rate = 0.000555556
latency change    = 0.0210187
throughput change = 0.0230769
Class 0:
Packet latency average = 15.1896
	minimum = 7
	maximum = 24
Network latency average = 15.1896
	minimum = 7
	maximum = 24
Slowest packet = 24072
Flit latency average = 15.1896
	minimum = 7
	maximum = 24
Slowest flit = 24072
Fragmentation average = 0
	minimum = 0
	maximum = 0
Injected packet rate average = 0.049
	minimum = 0.0405 (at node 7)
	maximum = 0.058 (at node 4)
Accepted packet rate average = 0.0489444
	minimum = 0.0425 (at node 4)
	maximum = 0.0595 (at node 1)
Injected flit rate average = 0.049
	minimum = 0.0405 (at node 7)
	maximum = 0.058 (at node 4)
Accepted flit rate average= 0.0489444
	minimum = 0.0425 (at node 4)
	maximum = 0.0595 (at node 1)
Injected packet length average = 1
Accepted packet length average = 1
Total in-flight flits = 9 (0 measured)
Buffer busy stall rate = 0.00133333
Buffer conflict stall rate = 0.0005
Buffer full stall rate = 0
Buffer reserved stall rate = 0
Crossbar conflict stall rate = 0.0005
latency change    = 0.00133819
throughput change = 0.0329171
Class 0:
Packet latency average = 15.3052
	minimum = 7
	maximum = 22
Network latency average = 15.3052
	minimum = 7
	maximum = 22
Slowest packet = 24431
Flit latency average = 15.3052
	minimum = 7
	maximum = 22
Slowest flit = 24431
Fragmentation average = 0
	minimum = 0
	maximum = 0
Injected packet rate average = 0.0478889
	minimum = 0.041 (at node 0)
	maximum = 0.058 (at node 4)
Accepted packet rate average = 0.0487778
	minimum = 0.042 (at node 4)
	maximum = 0.057 (at node 5)
Injected flit rate average = 0.0478889
	minimum = 0.041 (at node 0)
	maximum = 0.058 (at node 4)
Accepted flit rate average= 0.0487778
	minimum = 0.042 (at node 4)
	maximum = 0.057 (at node 5)
Injected packet length average = 1
Accepted packet length average = 1
Total in-flight flits = 1 (0 measured)
Buffer busy stall rate = 0.000777778
Buffer conflict stall rate = 0.000777778
Buffer full stall rate = 0
Buffer reserved stall rate = 0
Crossbar conflict stall rate = 0.000111111
latency change    = 0.00755832
throughput change = 0.00341686
Class 0:
Packet latency average = 15.2311
	minimum = 7
	maximum = 22
Network latency average = 15.2311
	minimum = 7
	maximum = 22
Slowest packet = 24431
Flit latency average = 15.2311
	minimum = 7
	maximum = 22
Slowest flit = 24431
Fragmentation average = 0
	minimum = 0
	maximum = 0
Injected packet rate average = 0.0496667
	minimum = 0.041 (at node 0)
	maximum = 0.0635 (at node 3)
Accepted packet rate average = 0.05
	minimum = 0.046 (at node 3)
	maximum = 0.055 (at node 0)
Injected flit rate average = 0.0496667
	minimum = 0.041 (at node 0)
	maximum = 0.0635 (at node 3)
Accepted flit rate average= 0.05
	minimum = 0.046 (at node 3)
	maximum = 0.055 (at node 0)
Injected packet length average = 1
Accepted packet length average = 1
Total in-flight flits = 3 (0 measured)
Buffer busy stall rate = 0.000944444
Buffer conflict stall rate = 0.000777778
Buffer full stall rate = 0
Buffer reserved stall rate = 0
Crossbar conflict stall rate = 0.000277778
latency change    = 0.00486689
throughput change = 0.0244444
Class 0:
Packet latency average = 14.9402
	minimum = 7
	maximum = 21
Network latency average = 14.9402
	minimum = 7
	maximum = 21
Slowest packet = 25189
Flit latency average = 14.9402
	minimum = 7
	maximum = 21
Slowest flit = 25189
Fragmentation average = 0
	minimum = 0
	maximum = 0
Injected packet rate average = 0.0545556
	minimum = 0.047 (at node 1)
	maximum = 0.064 (at node 6)
Accepted packet rate average = 0.0538889
	minimum = 0.049 (at node 5)
	maximum = 0.061 (at node 7)
Injected flit rate average = 0.0545556
	minimum = 0.047 (at node 1)
	maximum = 0.064 (at node 6)
Accepted flit rate average= 0.0538889
	minimum = 0.049 (at node 5)
	maximum = 0.061 (at node 7)
Injected packet length average = 1
Accepted packet length average = 1
Total in-flight flits = 9 (0 measured)
Buffer busy stall rate = 0.001
Buffer conflict stall rate = 0.000666667
Buffer full stall rate = 0
Buffer reserved stall rate = 0
Crossbar conflict stall rate = 0.000333333
latency change    = 0.0194713
throughput change = 0.0721649
Class 0:
Packet latency average = 15.032
	minimum = 7
	maximum = 22
Network latency average = 15.032
	minimum = 7
	maximum = 22
Slowest packet = 25747
Flit latency average = 15.032
	minimum = 7
	maximum = 22
Slowest flit = 25747
Fragmentation average = 0
	minimum = 0
	maximum = 0
Injected packet rate average = 0.0523333
	minimum = 0.046 (at node 3)
	maximum = 0.06 (at node 8)
Accepted packet rate average = 0.0521111
	minimum = 0.0445 (at node 5)
	maximum = 0.06 (at node 8)
Injected flit rate average = 0.0523333
	minimum = 0.046 (at node 3)
	maximum = 0.06 (at node 8)
Accepted flit rate average= 0.0521111
	minimum = 0.0445 (at node 5)
	maximum = 0.06 (at node 8)
Injected packet length average = 1
Accepted packet length average = 1
Total in-flight flits = 7 (0 measured)
Buffer busy stall rate = 0.00133333
Buffer conflict stall rate = 0.000888889
Buffer full stall rate = 0
Buffer reserved stall rate = 0
Crossbar conflict stall rate = 0.000333333
latency change    = 0.00610543
throughput change = 0.0341151
Class 0:
Packet latency average = 15.3319
	minimum = 7
	maximum = 22
Network latency average = 15.3319
	minimum = 7
	maximum = 22
Slowest packet = 26102
Flit latency average = 15.3319
	minimum = 7
	maximum = 22
Slowest flit = 26102
Fragmentation average = 0
	minimum = 0
	maximum = 0
Injected packet rate average = 0.0505556
	minimum = 0.035 (at node 3)
	maximum = 0.068 (at node 4)
Accepted packet rate average = 0.0505556
	minimum = 0.044 (at node 0)
	maximum = 0.059 (at node 8)
Injected flit rate average = 0.0505556
	minimum = 0.035 (at node 3)
	maximum = 0.068 (at node 4)
Accepted flit rate average= 0.0505556
	minimum = 0.044 (at node 0)
	maximum = 0.059 (at node 8)
Injected packet length average = 1
Accepted packet length average = 1
Total in-flight flits = 7 (0 measured)
Buffer busy stall rate = 0.00111111
Buffer conflict stall rate = 0.001
Buffer full stall rate = 0
Buffer reserved stall rate = 0
Crossbar conflict stall rate = 0.000222222
latency change    = 0.0195596
throughput change = 0.0307692
Class 0:
Packet latency average = 15.1619
	minimum = 7
	maximum = 22
Network latency average = 15.1619
	minimum = 7
	maximum = 22
Slowest packet = 26102
Flit latency average = 15.1619
	minimum = 7
	maximum = 22
Slowest flit = 26102
Fragmentation average = 0
	minimum = 0
	maximum = 0
Injected packet rate average = 0.0503889
	minimum = 0.044 (at node 5)
	maximum = 0.0565 (at node 0)
Accepted packet rate average = 0.0504444
	minimum = 0.042 (at node 4)
	maximum = 0.058 (at node 2)
Injected flit rate average = 0.0503889
	minimum = 0.044 (at node 5)
	maximum = 0.0565 (at node 0)
Accepted flit rate average= 0.0504444
	minimum = 0.042 (at node 4)
	maximum = 0.058 (at node 2)
Injected packet length average = 1
Accepted packet length average = 1
Total in-flight flits = 6 (0 measured)
Buffer busy stall rate = 0.00116667
Buffer conflict stall rate = 0.000833333
Buffer full stall rate = 0
Buffer reserved stall rate = 0
Crossbar conflict stall rate = 0.000277778
latency change    = 0.0112106
throughput change = 0.00220264
Class 0:
Packet latency average = 15.222
	minimum = 7
	maximum = 22
Network latency average = 15.222
	minimum = 7
	maximum = 22
Slowest packet = 27031
Flit latency average = 15.222
	minimum = 7
	maximum = 22
Slowest flit = 27031
Fragmentation average = 0
	minimum = 0
	maximum = 0
Injected packet rate average = 0.0465556
	minimum = 0.036 (at node 3)
	maximum = 0.061 (at node 1)
Accepted packet rate average = 0.0465556
	minimum = 0.042 (at node 0)
	maximum = 0.052 (at node 7)
Injected flit rate average = 0.0465556
	minimum = 0.036 (at node 3)
	maximum = 0.061 (at node 1)
Accepted flit rate average= 0.0465556
	minimum = 0.042 (at node 0)
	maximum = 0.052 (at node 7)
Injected packet length average = 1
Accepted packet length average = 1
Total in-flight flits = 6 (0 measured)
Buffer busy stall rate = 0.00144444
Buffer conflict stall rate = 0.000777778
Buffer full stall rate = 0
Buffer reserved stall rate = 0
Crossbar conflict stall rate = 0.000444444
latency change    = 0.0039458
throughput change = 0.0835322
Class 0:
Packet latency average = 15.2368
	minimum = 7
	maximum = 22
Network latency average = 15.2368
	minimum = 7
	maximum = 22
Slowest packet = 27031
Flit latency average = 15.2368
	minimum = 7
	maximum = 22
Slowest flit = 27031
Fragmentation average = 0
	minimum = 0
	maximum = 0
Injected packet rate average = 0.0485
	minimum = 0.041 (at node 7)
	maximum = 0.06 (at node 1)
Accepted packet rate average = 0.0485556
	minimum = 0.0425 (at node 0)
	maximum = 0.051 (at node 4)
Injected flit rate average = 0.0485
	minimum = 0.041 (at node 7)
	maximum = 0.06 (at node 1)
Accepted flit rate average= 0.0485556
	minimum = 0.0425 (at node 0)
	maximum = 0.051 (at node 4)
Injected packet length average = 1
Accepted packet length average = 1
Total in-flight flits = 5 (0 measured)
Buffer busy stall rate = 0.00111111
Buffer conflict stall rate = 0.000833333
Buffer full stall rate = 0
Buffer reserved stall rate = 0
Crossbar conflict stall rate = 0.0005
latency change    = 0.000976913
throughput change = 0.0411899
Class 0:
Packet latency average = 14.6945
	minimum = 7
	maximum = 23
Network latency average = 14.6945
	minimum = 7
	maximum = 23
Slowest packet = 28048
Flit latency average = 14.6945
	minimum = 7
	maximum = 23
Slowest flit = 28048
Fragmentation average = 0
	minimum = 0
	maximum = 0
Injected packet rate average = 0.0545556
	minimum = 0.049 (at node 4)
	maximum = 0.059 (at node 1)
Accepted packet rate average = 0.0545556
	minimum = 0.046 (at node 4)
	maximum = 0.064 (at node 7)
Injected flit rate average = 0.0545556
	minimum = 0.049 (at node 4)
	maximum = 0.059 (at node 1)
Accepted flit rate average= 0.0545556
	minimum = 0.046 (at node 4)
	maximum = 0.064 (at node 7)
Injected packet length average = 1
Accepted packet length average = 1
Total in-flight flits = 5 (0 measured)
Buffer busy stall rate = 0.00133333
Buffer conflict stall rate = 0.001
Buffer full stall rate = 0
Buffer reserved stall rate = 0
Crossbar conflict stall rate = 0
latency change    = 0.0369078
throughput change = 0.10998
Class 0:
Packet latency average = 14.9604
	minimum = 7
	maximum = 23
Network latency average = 14.9604
	minimum = 7
	maximum = 23
Slowest packet = 28048
Flit latency average = 14.9604
	minimum = 7
	maximum = 23
Slowest flit = 28048
Fragmentation average = 0
	minimum = 0
	maximum = 0
Injected packet rate average = 0.0522222
	minimum = 0.0435 (at node 7)
	maximum = 0.058 (at node 6)
Accepted packet rate average = 0.0518889
	minimum = 0.0425 (at node 5)
	maximum = 0.06 (at node 1)
Injected flit rate average = 0.0522222
	minimum = 0.0435 (at node 7)
	maximum = 0.058 (at node 6)
Accepted flit rate average= 0.0518889
	minimum = 0.0425 (at node 5)
	maximum = 0.06 (at node 1)
Injected packet length average = 1
Accepted packet length average = 1
Total in-flight flits = 11 (0 measured)
Buffer busy stall rate = 0.00138889
Buffer conflict stall rate = 0.001
Buffer full stall rate = 0
Buffer reserved stall rate = 0
Crossbar conflict stall rate = 5.55556e-05
latency change    = 0.0177726
throughput change = 0.0513919
Class 0:
Packet latency average = 15.3235
	minimum = 7
	maximum = 22
Network latency average = 15.3235
	minimum = 7
	maximum = 22
Slowest packet = 28894
Flit latency average = 15.3235
	minimum = 7
	maximum = 22
Slowest flit = 28894
Fragmentation average = 0
	minimum = 0
	maximum = 0
Injected packet rate average = 0.045
	minimum = 0.036 (at node 7)
	maximum = 0.057 (at node 3)
Accepted packet rate average = 0.045
	minimum = 0.035 (at node 6)
	maximum = 0.054 (at node 1)
Injected flit rate average = 0.045
	minimum = 0.036 (at node 7)
	maximum = 0.057 (at node 3)
Accepted flit rate average= 0.045
	minimum = 0.035 (at node 6)
	maximum = 0.054 (at node 1)
Injected packet length average = 1
Accepted packet length average = 1
Total in-flight flits = 11 (0 measured)
Buffer busy stall rate = 0.00144444
Buffer conflict stall rate = 0.000777778
Buffer full stall rate = 0
Buffer reserved stall rate = 0
Crossbar conflict stall rate = 0.000111111
latency change    = 0.0236938
throughput change = 0.153086
Class 0:
Packet latency average = 15.1991
	minimum = 7
	maximum = 24
Network latency average = 15.1991
	minimum = 7
	maximum = 24
Slowest packet = 29376
Flit latency average = 15.1991
	minimum = 7
	maximum = 24
Slowest flit = 29376
Fragmentation average = 0
	minimum = 0
	maximum = 0
Injected packet rate average = 0.0480556
	minimum = 0.0405 (at node 4)
	maximum = 0.055 (at node 3)
Accepted packet rate average = 0.0485556
	minimum = 0.0405 (at node 3)
	maximum = 0.0565 (at node 4)
Injected flit rate average = 0.0480556
	minimum = 0.0405 (at node 4)
	maximum = 0.055 (at node 3)
Accepted flit rate average= 0.0485556
	minimum = 0.0405 (at node 3)
	maximum = 0.0565 (at node 4)
Injected packet length average = 1
Accepted packet length average = 1
Total in-flight flits = 2 (0 measured)
Buffer busy stall rate = 0.00172222
Buffer conflict stall rate = 0.000833333
Buffer full stall rate = 0
Buffer reserved stall rate = 0
Crossbar conflict stall rate = 0.000166667
latency change    = 0.00818287
throughput change = 0.0732265
Class 0:
Packet latency average = 15.2729
	minimum = 7
	maximum = 22
Network latency average = 15.2729
	minimum = 7
	maximum = 22
Slowest packet = 29961
Flit latency average = 15.2729
	minimum = 7
	maximum = 22
Slowest flit = 29961
Fragmentation average = 0
	minimum = 0
	maximum = 0
Injected packet rate average = 0.0488889
	minimum = 0.041 (at node 7)
	maximum = 0.058 (at node 0)
Accepted packet rate average = 0.0484444
	minimum = 0.043 (at node 6)
	maximum = 0.052 (at node 1)
Injected flit rate average = 0.0488889
	minimum = 0.041 (at node 7)
	maximum = 0.058 (at node 0)
Accepted flit rate average= 0.0484444
	minimum = 0.043 (at node 6)
	maximum = 0.052 (at node 1)
Injected packet length average = 1
Accepted packet length average = 1
Total in-flight flits = 6 (0 measured)
Buffer busy stall rate = 0.00133333
Buffer conflict stall rate = 0.000888889
Buffer full stall rate = 0
Buffer reserved stall rate = 0
Crossbar conflict stall rate = 0.000444444
latency change    = 0.00483542
throughput change = 0.00229358
Class 0:
Packet latency average = 15.368
	minimum = 7
	maximum = 22
Network latency average = 15.368
	minimum = 7
	maximum = 22
Slowest packet = 29961
Flit latency average = 15.368
	minimum = 7
	maximum = 22
Slowest flit = 29961
Fragmentation average = 0
	minimum = 0
	maximum = 0
Injected packet rate average = 0.0507778
	minimum = 0.046 (at node 3)
	maximum = 0.058 (at node 0)
Accepted packet rate average = 0.0502778
	minimum = 0.045 (at node 2)
	maximum = 0.0555 (at node 3)
Injected flit rate average = 0.0507778
	minimum = 0.046 (at node 3)
	maximum = 0.058 (at node 0)
Accepted flit rate average= 0.0502778
	minimum = 0.045 (at node 2)
	maximum = 0.0555 (at node 3)
Injected packet length average = 1
Accepted packet length average = 1
Total in-flight flits = 11 (0 measured)
Buffer busy stall rate = 0.00133333
Buffer conflict stall rate = 0.000888889
Buffer full stall rate = 0
Buffer reserved stall rate = 0
Crossbar conflict stall rate = 0.000388889
latency change    = 0.006183
throughput change = 0.0364641
Class 0:
Packet latency average = 14.9936
	minimum = 7
	maximum = 21
Network latency average = 14.9936
	minimum = 7
	maximum = 21
Slowest packet = 30608
Flit latency average = 14.9936
	minimum = 7
	maximum = 21
Slowest flit = 30608
Fragmentation average = 0
	minimum = 0
	maximum = 0
Injected packet rate average = 0.0515556
	minimum = 0.04 (at node 6)
	maximum = 0.065 (at node 7)
Accepted packet rate average = 0.0522222
	minimum = 0.043 (at node 3)
	maximum = 0.065 (at node 0)
Injected flit rate average = 0.0515556
	minimum = 0.04 (at node 6)
	maximum = 0.065 (at node 7)
Accepted flit rate average= 0.0522222
	minimum = 0.043 (at node 3)
	maximum = 0.065 (at node 0)
Injected packet length average = 1
Accepted packet length average = 1
Total in-flight flits = 5 (0 measured)
Buffer busy stall rate = 0.00111111
Buffer conflict stall rate = 0.000555556
Buffer full stall rate = 0
Buffer reserved stall rate = 0
Crossbar conflict stall rate = 0.000222222
latency change    = 0.0249665
throughput change = 0.037234
Class 0:
Packet latency average = 15.0637
	minimum = 7
	maximum = 22
Network latency average = 15.0637
	minimum = 7
	maximum = 22
Slowest packet = 31094
Flit latency average = 15.0637
	minimum = 7
	maximum = 22
Slowest flit = 31094
Fragmentation average = 0
	minimum = 0
	maximum = 0
Injected packet rate average = 0.0502778
	minimum = 0.047 (at node 2)
	maximum = 0.058 (at node 1)
Accepted packet rate average = 0.0506111
	minimum = 0.044 (at node 3)
	maximum = 0.062 (at node 0)
Injected flit rate average = 0.0502778
	minimum = 0.047 (at node 2)
	maximum = 0.058 (at node 1)
Accepted flit rate average= 0.0506111
	minimum = 0.044 (at node 3)
	maximum = 0.062 (at node 0)
Injected packet length average = 1
Accepted packet length average = 1
Total in-flight flits = 5 (0 measured)
Buffer busy stall rate = 0.00127778
Buffer conflict stall rate = 0.000833333
Buffer full stall rate = 0
Buffer reserved stall rate = 0
Crossbar conflict stall rate = 0.000166667
latency change    = 0.00465021
throughput change = 0.0318332
Class 0:
Packet latency average = 14.6682
	minimum = 7
	maximum = 23
Network latency average = 14.6682
	minimum = 7
	maximum = 23
Slowest packet = 31822
Flit latency average = 14.6682
	minimum = 7
	maximum = 23
Slowest flit = 31822
Fragmentation average = 0
	minimum = 0
	maximum = 0
Injected packet rate average = 0.0493333
	minimum = 0.04 (at node 4)
	maximum = 0.075 (at node 5)
Accepted packet rate average = 0.0488889
	minimum = 0.043 (at node 1)
	maximum = 0.054 (at node 5)
Injected flit rate average = 0.0493333
	minimum = 0.04 (at node 4)
	maximum = 0.075 (at node 5)
Accepted flit rate average= 0.0488889
	minimum = 0.043 (at node 1)
	maximum = 0.054 (at node 5)
Injected packet length average = 1
Accepted packet length average = 1
Total in-flight flits = 9 (0 measured)
Buffer busy stall rate = 0.00111111
Buffer conflict stall rate = 0.000888889
Buffer full stall rate = 0
Buffer reserved stall rate = 0
Crossbar conflict stall rate = 0.000555556
latency change    = 0.0269621
throughput change = 0.0352273
Class 0:
Packet latency average = 14.773
	minimum = 7
	maximum = 23
Network latency average = 14.773
	minimum = 7
	maximum = 23
Slowest packet = 31822
Flit latency average = 14.773
	minimum = 7
	maximum = 23
Slowest flit = 31822
Fragmentation average = 0
	minimum = 0
	maximum = 0
Injected packet rate average = 0.0498333
	minimum = 0.042 (at node 4)
	maximum = 0.065 (at node 5)
Accepted packet rate average = 0.0494444
	minimum = 0.0405 (at node 2)
	maximum = 0.0545 (at node 7)
Injected flit rate average = 0.0498333
	minimum = 0.042 (at node 4)
	maximum = 0.065 (at node 5)
Accepted flit rate average= 0.0494444
	minimum = 0.0405 (at node 2)
	maximum = 0.0545 (at node 7)
Injected packet length average = 1
Accepted packet length average = 1
Total in-flight flits = 12 (0 measured)
Buffer busy stall rate = 0.00122222
Buffer conflict stall rate = 0.000944444
Buffer full stall rate = 0
Buffer reserved stall rate = 0
Crossbar conflict stall rate = 0.000277778
latency change    = 0.00709752
throughput change = 0.011236
Class 0:
Packet latency average = 15.1856
	minimum = 7
	maximum = 22
Network latency average = 15.1856
	minimum = 7
	maximum = 22
Slowest packet = 32612
Flit latency average = 15.1856
	minimum = 7
	maximum = 22
Slowest flit = 32612
Fragmentation average = 0
	minimum = 0
	maximum = 0
Injected packet rate average = 0.0498889
	minimum = 0.038 (at node 5)
	maximum = 0.064 (at node 1)
Accepted packet rate average = 0.0508889
	minimum = 0.033 (at node 5)
	maximum = 0.063 (at node 3)
Injected flit rate average = 0.0498889
	minimum = 0.038 (at node 5)
	maximum = 0.064 (at node 1)
Accepted flit rate average= 0.0508889
	minimum = 0.033 (at node 5)
	maximum = 0.063 (at node 3)
Injected packet length average = 1
Accepted packet length average = 1
Total in-flight flits = 3 (0 measured)
Buffer busy stall rate = 0.00144444
Buffer conflict stall rate = 0.00111111
Buffer full stall rate = 0
Buffer reserved stall rate = 0
Crossbar conflict stall rate = 0.000222222
latency change    = 0.0271676
throughput change = 0.0283843
Class 0:
Packet latency average = 15.2115
	minimum = 7
	maximum = 23
Network latency average = 15.2115
	minimum = 7
	maximum = 23
Slowest packet = 33108
Flit latency average = 15.2115
	minimum = 7
	maximum = 23
Slowest flit = 33108
Fragmentation average = 0
	minimum = 0
	maximum = 0
Injected packet rate average = 0.0501111
	minimum = 0.045 (at node 8)
	maximum = 0.0575 (at node 4)
Accepted packet rate average = 0.0504444
	minimum = 0.036 (at node 5)
	maximum = 0.0575 (at node 2)
Injected flit rate average = 0.0501111
	minimum = 0.045 (at node 8)
	maximum = 0.0575 (at node 4)
Accepted flit rate average= 0.0504444
	minimum = 0.036 (at node 5)
	maximum = 0.0575 (at node 2)
Injected packet length average = 1
Accepted packet length average = 1
Total in-flight flits = 6 (0 measured)
Buffer busy stall rate = 0.00122222
Buffer conflict stall rate = 0.00133333
Buffer full stall rate = 0
Buffer reserved stall rate = 0
Crossbar conflict stall rate = 0.000222222
latency change    = 0.00170031
throughput change = 0.00881057
Class 0:
Packet latency average = 15.0874
	minimum = 7
	maximum = 22
Network latency average = 15.0874
	minimum = 7
	maximum = 22
Slowest packet = 33610
Flit latency average = 15.0874
	minimum = 7
	maximum = 22
Slowest flit = 33610
Fragmentation average = 0
	minimum = 0
	maximum = 0
Injected packet rate average = 0.0488889
	minimum = 0.042 (at node 0)
	maximum = 0.056 (at node 3)
Accepted packet rate average = 0.0483333
	minimum = 0.037 (at node 3)
	maximum = 0.063 (at node 5)
Injected flit rate average = 0.0488889
	minimum = 0.042 (at node 0)
	maximum = 0.056 (at node 3)
Accepted flit rate average= 0.0483333
	minimum = 0.037 (at node 3)
	maximum = 0.063 (at node 5)
Injected packet length average = 1
Accepted packet length average = 1
Total in-flight flits = 11 (0 measured)
Buffer busy stall rate = 0.000555556
Buffer conflict stall rate = 0.000444444
Buffer full stall rate = 0
Buffer reserved stall rate = 0
Crossbar conflict stall rate = 0.000333333
latency change    = 0.00822526
throughput change = 0.0436782
Class 0:
Packet latency average = 15.0836
	minimum = 7
	maximum = 23
Network latency average = 15.0836
	minimum = 7
	maximum = 23
Slowest packet = 33997
Flit latency average = 15.0836
	minimum = 7
	maximum = 23
Slowest flit = 33997
Fragmentation average = 0
	minimum = 0
	maximum = 0
Injected packet rate average = 0.0503889
	minimum = 0.0425 (at node 0)
	maximum = 0.054 (at node 8)
Accepted packet rate average = 0.0505
	minimum = 0.041 (at node 6)
	maximum = 0.056 (at node 2)
Injected flit rate average = 0.0503889
	minimum = 0.0425 (at node 0)
	maximum = 0.054 (at node 8)
Accepted flit rate average= 0.0505
	minimum = 0.041 (at node 6)
	maximum = 0.056 (at node 2)
Injected packet length average = 1
Accepted packet length average = 1
Total in-flight flits = 4 (0 measured)
Buffer busy stall rate = 0.000833333
Buffer conflict stall rate = 0.000555556
Buffer full stall rate = 0
Buffer reserved stall rate = 0
Crossbar conflict stall rate = 0.000222222
latency change    = 0.000248479
throughput change = 0.0429043
Class 0:
Packet latency average = 15.1168
	minimum = 7
	maximum = 22
Network latency average = 15.1168
	minimum = 7
	maximum = 22
Slowest packet = 34401
Flit latency average = 15.1168
	minimum = 7
	maximum = 22
Slowest flit = 34401
Fragmentation average = 0
	minimum = 0
	maximum = 0
Injected packet rate average = 0.0528889
	minimum = 0.046 (at node 0)
	maximum = 0.06 (at node 4)
Accepted packet rate average = 0.0523333
	minimum = 0.041 (at node 1)
	maximum = 0.066 (at node 2)
Injected flit rate average = 0.0528889
	minimum = 0.046 (at node 0)
	maximum = 0.06 (at node 4)
Accepted flit rate average= 0.0523333
	minimum = 0.041 (at node 1)
	maximum = 0.066 (at node 2)
Injected packet length average = 1
Accepted packet length average = 1
Total in-flight flits = 9 (0 measured)
Buffer busy stall rate = 0.00122222
Buffer conflict stall rate = 0.001
Buffer full stall rate = 0
Buffer reserved stall rate = 0
Crossbar conflict stall rate = 0.000222222
latency change    = 0.00219389
throughput change = 0.0350318
Class 0:
Packet latency average = 15.2061
	minimum = 7
	maximum = 22
Network latency average = 15.2061
	minimum = 7
	maximum = 22
Slowest packet = 34401
Flit latency average = 15.2061
	minimum = 7
	maximum = 22
Slowest flit = 34401
Fragmentation average = 0
	minimum = 0
	maximum = 0
Injected packet rate average = 0.0515556
	minimum = 0.045 (at node 5)
	maximum = 0.0575 (at node 7)
Accepted packet rate average = 0.0512222
	minimum = 0.0415 (at node 4)
	maximum = 0.0635 (at node 2)
Injected flit rate average = 0.0515556
	minimum = 0.045 (at node 5)
	maximum = 0.0575 (at node 7)
Accepted flit rate average= 0.0512222
	minimum = 0.0415 (at node 4)
	maximum = 0.0635 (at node 2)
Injected packet length average = 1
Accepted packet length average = 1
Total in-flight flits = 10 (0 measured)
Buffer busy stall rate = 0.00127778
Buffer conflict stall rate = 0.000888889
Buffer full stall rate = 0
Buffer reserved stall rate = 0
[...]
Crossbar conflict stall rate = 0.000444444
latency change    = 0.000502711
throughput change = 0.0644769
Class 0:
Packet latency average = 15.1827
	minimum = 7
	maximum = 24
Network latency average = 15.1827
	minimum = 7
	maximum = 24
Slowest packet = 443146
Flit latency average = 15.1827
	minimum = 7
	maximum = 24
Slowest flit = 443146
Fragmentation average = 0
	minimum = 0
	maximum = 0
Injected packet rate average = 0.0480556
	minimum = 0.041 (at node 4)
	maximum = 0.055 (at node 7)
Accepted packet rate average = 0.0480556
	minimum = 0.043 (at node 6)
	maximum = 0.0555 (at node 2)
Injected flit rate average = 0.0480556
	minimum = 0.041 (at node 4)
	maximum = 0.055 (at node 7)
Accepted flit rate average= 0.0480556
	minimum = 0.043 (at node 6)
	maximum = 0.0555 (at node 2)
Injected packet length average = 1
Accepted packet length average = 1
Total in-flight flits = 6 (0 measured)
Buffer busy stall rate = 0.00122222
Buffer conflict stall rate = 0.000444444
Buffer full stall rate = 0
Buffer reserved stall rate = 0
Crossbar conflict stall rate = 0.000555556
latency change    = 0.000789601
throughput change = 0.049711
Class 0:
Packet latency average = 15.1106
	minimum = 7
	maximum = 22
Network latency average = 15.1106
	minimum = 7
	maximum = 22
Slowest packet = 443639
Flit latency average = 15.1106
	minimum = 7
	maximum = 22
Slowest flit = 443639
Fragmentation average = 0
	minimum = 0
	maximum = 0
Injected packet rate average = 0.0528889
	minimum = 0.046 (at node 3)
	maximum = 0.062 (at node 6)
Accepted packet rate average = 0.0532222
	minimum = 0.045 (at node 4)
	maximum = 0.06 (at node 8)
Injected flit rate average = 0.0528889
	minimum = 0.046 (at node 3)
	maximum = 0.062 (at node 6)
Accepted flit rate average= 0.0532222
	minimum = 0.045 (at node 4)
	maximum = 0.06 (at node 8)
Injected packet length average = 1
Accepted packet length average = 1
Total in-flight flits = 3 (0 measured)
Buffer busy stall rate = 0.00144444
Buffer conflict stall rate = 0.000777778
Buffer full stall rate = 0
Buffer reserved stall rate = 0
Crossbar conflict stall rate = 0.000222222
latency change    = 0.00476563
throughput change = 0.0970772
Class 0:
Packet latency average = 15.1622
	minimum = 7
	maximum = 22
Network latency average = 15.1622
	minimum = 7
	maximum = 22
Slowest packet = 443639
Flit latency average = 15.1622
	minimum = 7
	maximum = 22
Slowest flit = 443639
Fragmentation average = 0
	minimum = 0
	maximum = 0
Injected packet rate average = 0.0522222
	minimum = 0.046 (at node 1)
	maximum = 0.0625 (at node 6)
Accepted packet rate average = 0.0520556
	minimum = 0.045 (at node 4)
	maximum = 0.0575 (at node 3)
Injected flit rate average = 0.0522222
	minimum = 0.046 (at node 1)
	maximum = 0.0625 (at node 6)
Accepted flit rate average= 0.0520556
	minimum = 0.045 (at node 4)
	maximum = 0.0575 (at node 3)
Injected packet length average = 1
Accepted packet length average = 1
Total in-flight flits = 9 (0 measured)
Buffer busy stall rate = 0.00144444
Buffer conflict stall rate = 0.000666667
Buffer full stall rate = 0
Buffer reserved stall rate = 0
Crossbar conflict stall rate = 0.000222222
latency change    = 0.00340139
throughput change = 0.022412
Class 0:
Packet latency average = 15.0826
	minimum = 7
	maximum = 22
Network latency average = 15.0826
	minimum = 7
	maximum = 22
Slowest packet = 444453
Flit latency average = 15.0826
	minimum = 7
	maximum = 22
Slowest flit = 444453
Fragmentation average = 0
	minimum = 0
	maximum = 0
Injected packet rate average = 0.0525556
	minimum = 0.046 (at node 7)
	maximum = 0.063 (at node 2)
Accepted packet rate average = 0.0524444
	minimum = 0.047 (at node 8)
	maximum = 0.068 (at node 1)
Injected flit rate average = 0.0525556
	minimum = 0.046 (at node 7)
	maximum = 0.063 (at node 2)
Accepted flit rate average= 0.0524444
	minimum = 0.047 (at node 8)
	maximum = 0.068 (at node 1)
Injected packet length average = 1
Accepted packet length average = 1
Total in-flight flits = 10 (0 measured)
Buffer busy stall rate = 0.00111111
Buffer conflict stall rate = 0.001
Buffer full stall rate = 0
Buffer reserved stall rate = 0
Crossbar conflict stall rate = 0.000444444
latency change    = 0.00527711
throughput change = 0.00741525
Class 0:
Packet latency average = 15.1139
	minimum = 7
	maximum = 22
Network latency average = 15.1139
	minimum = 7
	maximum = 22
Slowest packet = 444453
Flit latency average = 15.1139
	minimum = 7
	maximum = 22
Slowest flit = 444453
Fragmentation average = 0
	minimum = 0
	maximum = 0
Injected packet rate average = 0.0510556
	minimum = 0.044 (at node 1)
	maximum = 0.0555 (at node 7)
Accepted packet rate average = 0.0512222
	minimum = 0.0445 (at node 6)
	maximum = 0.0605 (at node 1)
Injected flit rate average = 0.0510556
	minimum = 0.044 (at node 1)
	maximum = 0.0555 (at node 7)
Accepted flit rate average= 0.0512222
	minimum = 0.0445 (at node 6)
	maximum = 0.0605 (at node 1)
Injected packet length average = 1
Accepted packet length average = 1
Total in-flight flits = 6 (0 measured)
Buffer busy stall rate = 0.00127778
Buffer conflict stall rate = 0.000611111
Buffer full stall rate = 0
Buffer reserved stall rate = 0
Crossbar conflict stall rate = 0.000388889
latency change    = 0.00206802
throughput change = 0.0238612
Class 0:
Packet latency average = 14.8366
	minimum = 7
	maximum = 22
Network latency average = 14.8366
	minimum = 7
	maximum = 22
Slowest packet = 445448
Flit latency average = 14.8366
	minimum = 7
	maximum = 22
Slowest flit = 445448
Fragmentation average = 0
	minimum = 0
	maximum = 0
Injected packet rate average = 0.0518889
	minimum = 0.036 (at node 6)
	maximum = 0.069 (at node 0)
Accepted packet rate average = 0.0516667
	minimum = 0.042 (at node 3)
	maximum = 0.061 (at node 1)
Injected flit rate average = 0.0518889
	minimum = 0.036 (at node 6)
	maximum = 0.069 (at node 0)
Accepted flit rate average= 0.0516667
	minimum = 0.042 (at node 3)
	maximum = 0.061 (at node 1)
Injected packet length average = 1
Accepted packet length average = 1
Total in-flight flits = 8 (0 measured)
Buffer busy stall rate = 0.00133333
Buffer conflict stall rate = 0.000444444
Buffer full stall rate = 0
Buffer reserved stall rate = 0
Crossbar conflict stall rate = 0.000555556
latency change    = 0.0186919
throughput change = 0.00860215
Class 0:
Packet latency average = 15.1533
	minimum = 7
	maximum = 22
Network latency average = 15.1533
	minimum = 7
	maximum = 22
Slowest packet = 445448
Flit latency average = 15.1533
	minimum = 7
	maximum = 22
Slowest flit = 445448
Fragmentation average = 0
	minimum = 0
	maximum = 0
Injected packet rate average = 0.0508333
	minimum = 0.044 (at node 5)
	maximum = 0.056 (at node 1)
Accepted packet rate average = 0.0507222
	minimum = 0.046 (at node 8)
	maximum = 0.0575 (at node 6)
Injected flit rate average = 0.0508333
	minimum = 0.044 (at node 5)
	maximum = 0.056 (at node 1)
Accepted flit rate average= 0.0507222
	minimum = 0.046 (at node 8)
	maximum = 0.0575 (at node 6)
Injected packet length average = 1
Accepted packet length average = 1
Total in-flight flits = 8 (0 measured)
Buffer busy stall rate = 0.001
Buffer conflict stall rate = 0.000611111
Buffer full stall rate = 0
Buffer reserved stall rate = 0
Crossbar conflict stall rate = 0.0005
latency change    = 0.0209051
throughput change = 0.0186199
Class 0:
Packet latency average = 15.1962
	minimum = 7
	maximum = 24
Network latency average = 15.1962
	minimum = 7
	maximum = 24
Slowest packet = 446393
Flit latency average = 15.1962
	minimum = 7
	maximum = 24
Slowest flit = 446393
Fragmentation average = 0
	minimum = 0
	maximum = 0
Injected packet rate average = 0.0462222
	minimum = 0.041 (at node 5)
	maximum = 0.052 (at node 3)
Accepted packet rate average = 0.0464444
	minimum = 0.041 (at node 4)
	maximum = 0.052 (at node 1)
Injected flit rate average = 0.0462222
	minimum = 0.041 (at node 5)
	maximum = 0.052 (at node 3)
Accepted flit rate average= 0.0464444
	minimum = 0.041 (at node 4)
	maximum = 0.052 (at node 1)
Injected packet length average = 1
Accepted packet length average = 1
Total in-flight flits = 6 (0 measured)
Buffer busy stall rate = 0.00122222
Buffer conflict stall rate = 0.000444444
Buffer full stall rate = 0
Buffer reserved stall rate = 0
Crossbar conflict stall rate = 0.000444444
latency change    = 0.00281858
throughput change = 0.0921053
Class 0:
Packet latency average = 15.0604
	minimum = 7
	maximum = 24
Network latency average = 15.0604
	minimum = 7
	maximum = 24
Slowest packet = 446393
Flit latency average = 15.0604
	minimum = 7
	maximum = 24
Slowest flit = 446393
Fragmentation average = 0
	minimum = 0
	maximum = 0
Injected packet rate average = 0.0487222
	minimum = 0.0445 (at node 4)
	maximum = 0.0525 (at node 3)
Accepted packet rate average = 0.0487778
	minimum = 0.044 (at node 4)
	maximum = 0.0575 (at node 3)
Injected flit rate average = 0.0487222
	minimum = 0.0445 (at node 4)
	maximum = 0.0525 (at node 3)
Accepted flit rate average= 0.0487778
	minimum = 0.044 (at node 4)
	maximum = 0.0575 (at node 3)
Injected packet length average = 1
Accepted packet length average = 1
Total in-flight flits = 7 (0 measured)
Buffer busy stall rate = 0.00161111
Buffer conflict stall rate = 0.000666667
Buffer full stall rate = 0
Buffer reserved stall rate = 0
Crossbar conflict stall rate = 0.000611111
latency change    = 0.00901756
throughput change = 0.047836
Class 0:
Packet latency average = 14.6869
	minimum = 7
	maximum = 22
Network latency average = 14.6869
	minimum = 7
	maximum = 22
Slowest packet = 447358
Flit latency average = 14.6869
	minimum = 7
	maximum = 22
Slowest flit = 447358
Fragmentation average = 0
	minimum = 0
	maximum = 0
Injected packet rate average = 0.0478889
	minimum = 0.035 (at node 2)
	maximum = 0.067 (at node 5)
Accepted packet rate average = 0.0475556
	minimum = 0.035 (at node 6)
	maximum = 0.06 (at node 3)
Injected flit rate average = 0.0478889
	minimum = 0.035 (at node 2)
	maximum = 0.067 (at node 5)
Accepted flit rate average= 0.0475556
	minimum = 0.035 (at node 6)
	maximum = 0.06 (at node 3)
Injected packet length average = 1
Accepted packet length average = 1
Total in-flight flits = 10 (0 measured)
Buffer busy stall rate = 0.001
Buffer conflict stall rate = 0.00111111
Buffer full stall rate = 0
Buffer reserved stall rate = 0
Crossbar conflict stall rate = 0.000111111
latency change    = 0.0254273
throughput change = 0.0257009
Class 0:
Packet latency average = 14.813
	minimum = 7
	maximum = 22
Network latency average = 14.813
	minimum = 7
	maximum = 22
Slowest packet = 447358
Flit latency average = 14.813
	minimum = 7
	maximum = 22
Slowest flit = 447358
Fragmentation average = 0
	minimum = 0
	maximum = 0
Injected packet rate average = 0.0488333
	minimum = 0.041 (at node 6)
	maximum = 0.0545 (at node 0)
Accepted packet rate average = 0.0487222
	minimum = 0.0375 (at node 2)
	maximum = 0.058 (at node 4)
Injected flit rate average = 0.0488333
	minimum = 0.041 (at node 6)
	maximum = 0.0545 (at node 0)
Accepted flit rate average= 0.0487222
	minimum = 0.0375 (at node 2)
	maximum = 0.058 (at node 4)
Injected packet length average = 1
Accepted packet length average = 1
Total in-flight flits = 9 (0 measured)
Buffer busy stall rate = 0.00116667
Buffer conflict stall rate = 0.001
Buffer full stall rate = 0
Buffer reserved stall rate = 0
Crossbar conflict stall rate = 5.55556e-05
latency change    = 0.00851164
throughput change = 0.0239453
Class 0:
Packet latency average = 15.2092
	minimum = 7
	maximum = 22
Network latency average = 15.2092
	minimum = 7
	maximum = 22
Slowest packet = 448326
Flit latency average = 15.2092
	minimum = 7
	maximum = 22
Slowest flit = 448326
Fragmentation average = 0
	minimum = 0
	maximum = 0
Injected packet rate average = 0.0482222
	minimum = 0.039 (at node 2)
	maximum = 0.055 (at node 5)
Accepted packet rate average = 0.0483333
	minimum = 0.044 (at node 8)
	maximum = 0.054 (at node 3)
Injected flit rate average = 0.0482222
	minimum = 0.039 (at node 2)
	maximum = 0.055 (at node 5)
Accepted flit rate average= 0.0483333
	minimum = 0.044 (at node 8)
	maximum = 0.054 (at node 3)
Injected packet length average = 1
Accepted packet length average = 1
Total in-flight flits = 8 (0 measured)
Buffer busy stall rate = 0.000777778
Buffer conflict stall rate = 0.000888889
Buffer full stall rate = 0
Buffer reserved stall rate = 0
Crossbar conflict stall rate = 0.000555556
latency change    = 0.0260498
throughput change = 0.00804598
Class 0:
Packet latency average = 15.1513
	minimum = 7
	maximum = 22
Network latency average = 15.1513
	minimum = 7
	maximum = 22
Slowest packet = 448326
Flit latency average = 15.1513
	minimum = 7
	maximum = 22
Slowest flit = 448326
Fragmentation average = 0
	minimum = 0
	maximum = 0
Injected packet rate average = 0.0477222
	minimum = 0.045 (at node 2)
	maximum = 0.052 (at node 5)
Accepted packet rate average = 0.0477222
	minimum = 0.043 (at node 7)
	maximum = 0.0545 (at node 3)
Injected flit rate average = 0.0477222
	minimum = 0.045 (at node 2)
	maximum = 0.052 (at node 5)
Accepted flit rate average= 0.0477222
	minimum = 0.043 (at node 7)
	maximum = 0.0545 (at node 3)
Injected packet length average = 1
Accepted packet length average = 1
Total in-flight flits = 9 (0 measured)
Buffer busy stall rate = 0.000944444
Buffer conflict stall rate = 0.000833333
Buffer full stall rate = 0
Buffer reserved stall rate = 0
Crossbar conflict stall rate = 0.000388889
latency change    = 0.00381858
throughput change = 0.0128056
Class 0:
Packet latency average = 15.0515
	minimum = 7
	maximum = 22
Network latency average = 15.0515
	minimum = 7
	maximum = 22
Slowest packet = 449068
Flit latency average = 15.0515
	minimum = 7
	maximum = 22
Slowest flit = 449068
Fragmentation average = 0
	minimum = 0
	maximum = 0
Injected packet rate average = 0.0452222
	minimum = 0.036 (at node 0)
	maximum = 0.067 (at node 1)
Accepted packet rate average = 0.0453333
	minimum = 0.037 (at node 2)
	maximum = 0.056 (at node 4)
Injected flit rate average = 0.0452222
	minimum = 0.036 (at node 0)
	maximum = 0.067 (at node 1)
Accepted flit rate average= 0.0453333
	minimum = 0.037 (at node 2)
	maximum = 0.056 (at node 4)
Injected packet length average = 1
Accepted packet length average = 1
Total in-flight flits = 8 (0 measured)
Buffer busy stall rate = 0.000555556
Buffer conflict stall rate = 0.000333333
Buffer full stall rate = 0
Buffer reserved stall rate = 0
Crossbar conflict stall rate = 0.000444444
latency change    = 0.00663511
throughput change = 0.0526961
Class 0:
Packet latency average = 15.1929
	minimum = 7
	maximum = 22
Network latency average = 15.1929
	minimum = 7
	maximum = 22
Slowest packet = 449068
Flit latency average = 15.1929
	minimum = 7
	maximum = 22
Slowest flit = 449068
Fragmentation average = 0
	minimum = 0
	maximum = 0
Injected packet rate average = 0.0501111
	minimum = 0.04 (at node 0)
	maximum = 0.0615 (at node 1)
Accepted packet rate average = 0.0501111
	minimum = 0.0445 (at node 1)
	maximum = 0.056 (at node 4)
Injected flit rate average = 0.0501111
	minimum = 0.04 (at node 0)
	maximum = 0.0615 (at node 1)
Accepted flit rate average= 0.0501111
	minimum = 0.0445 (at node 1)
	maximum = 0.056 (at node 4)
Injected packet length average = 1
Accepted packet length average = 1
Total in-flight flits = 9 (0 measured)
Buffer busy stall rate = 0.001
Buffer conflict stall rate = 0.000722222
Buffer full stall rate = 0
Buffer reserved stall rate = 0
Crossbar conflict stall rate = 0.000388889
latency change    = 0.00930922
throughput change = 0.0953437
Warmed up ...Time used is 1000000 cycles
Class 0:
Packet latency average = 15.0268
	minimum = 7
	maximum = 22
Network latency average = 15.0268
	minimum = 7
	maximum = 22
Slowest packet = 449778
Flit latency average = 15.0678
	minimum = 7
	maximum = 22
Slowest flit = 449778
Fragmentation average = 0
	minimum = 0
	maximum = 0
Injected packet rate average = 0.0505556
	minimum = 0.039 (at node 7)
	maximum = 0.06 (at node 2)
Accepted packet rate average = 0.0507778
	minimum = 0.041 (at node 5)
	maximum = 0.065 (at node 4)
Injected flit rate average = 0.0505556
	minimum = 0.039 (at node 7)
	maximum = 0.06 (at node 2)
Accepted flit rate average= 0.0507778
	minimum = 0.041 (at node 5)
	maximum = 0.065 (at node 4)
Injected packet length average = 1
Accepted packet length average = 1
Total in-flight flits = 7 (7 measured)
Buffer busy stall rate = 0.00122222
Buffer conflict stall rate = 0.001
Buffer full stall rate = 0
Buffer reserved stall rate = 0
Crossbar conflict stall rate = 0.000333333
latency change    = 0.0110549
throughput change = 0.0131291
Class 0:
Packet latency average = 14.9715
	minimum = 7
	maximum = 22
Network latency average = 14.9715
	minimum = 7
	maximum = 22
Slowest packet = 449778
Flit latency average = 14.9932
	minimum = 7
	maximum = 22
Slowest flit = 449778
Fragmentation average = 0
	minimum = 0
	maximum = 0
Injected packet rate average = 0.0490556
	minimum = 0.043 (at node 6)
	maximum = 0.054 (at node 8)
Accepted packet rate average = 0.0491667
	minimum = 0.043 (at node 0)
	maximum = 0.059 (at node 4)
Injected flit rate average = 0.0490556
	minimum = 0.043 (at node 6)
	maximum = 0.054 (at node 8)
Accepted flit rate average= 0.0491667
	minimum = 0.043 (at node 0)
	maximum = 0.059 (at node 4)
Injected packet length average = 1
Accepted packet length average = 1
Total in-flight flits = 7 (7 measured)
Buffer busy stall rate = 0.00105556
Buffer conflict stall rate = 0.000833333
Buffer full stall rate = 0
Buffer reserved stall rate = 0
Crossbar conflict stall rate = 0.000277778
latency change    = 0.00369533
throughput change = 0.0327684
Class 0:
Packet latency average = 15.0226
	minimum = 7
	maximum = 22
Network latency average = 15.0226
	minimum = 7
	maximum = 22
Slowest packet = 449778
Flit latency average = 15.0363
	minimum = 7
	maximum = 22
Slowest flit = 449778
Fragmentation average = 0
	minimum = 0
	maximum = 0
Injected packet rate average = 0.0511481
	minimum = 0.043 (at node 6)
	maximum = 0.0563333 (at node 8)
Accepted packet rate average = 0.0510741
	minimum = 0.0446667 (at node 1)
	maximum = 0.0573333 (at node 4)
Injected flit rate average = 0.0511481
	minimum = 0.043 (at node 6)
	maximum = 0.0563333 (at node 8)
Accepted flit rate average= 0.0510741
	minimum = 0.0446667 (at node 1)
	maximum = 0.0573333 (at node 4)
Injected packet length average = 1
Accepted packet length average = 1
Total in-flight flits = 11 (11 measured)
Buffer busy stall rate = 0.00144444
Buffer conflict stall rate = 0.00111111
Buffer full stall rate = 0
Buffer reserved stall rate = 0
Crossbar conflict stall rate = 0.000296296
latency change    = 0.00340597
throughput change = 0.0373459
Draining all recorded packets ...
Draining remaining packets ...
Time taken is 1003038 cycles
====== Overall Traffic Statistics ======
====== Traffic class 0 ======
Packet latency average = 15.0514 (1 samples)
	minimum = 7 (1 samples)
	maximum = 22 (1 samples)
Network latency average = 15.0514 (1 samples)
	minimum = 7 (1 samples)
	maximum = 22 (1 samples)
Flit latency average = 15.0613 (1 samples)
	minimum = 7 (1 samples)
	maximum = 22 (1 samples)
Fragmentation average = 0 (1 samples)
	minimum = 0 (1 samples)
	maximum = 0 (1 samples)
Injected packet rate average = 0.0511481 (1 samples)
	minimum = 0.043 (1 samples)
	maximum = 0.0563333 (1 samples)
Accepted packet rate average = 0.0510741 (1 samples)
	minimum = 0.0446667 (1 samples)
	maximum = 0.0573333 (1 samples)
Injected flit rate average = 0.0511481 (1 samples)
	minimum = 0.043 (1 samples)
	maximum = 0.0563333 (1 samples)
Accepted flit rate average = 0.0510741 (1 samples)
	minimum = 0.0446667 (1 samples)
	maximum = 0.0573333 (1 samples)
Injected packet size average = 1 (1 samples)
Accepted packet size average = 1 (1 samples)
Hops average = 2.32223 (1 samples)
Buffer busy stall rate = 0.00144444 (1 samples)
Buffer conflict stall rate = 0.00111111 (1 samples)
Buffer full stall rate = 0 (1 samples)
Buffer reserved stall rate = 0 (1 samples)
Crossbar conflict stall rate = 0.000296296 (1 samples)
Total run time 20.7358
