BEGIN Configuration File: ../logs/session_2026_06_05_12_15/torus_run/config.cfg
// Topology
topology = torus;
k = 8;
n = 2;

// Routing
routing_function = dim_order;

// Flow Control
num_vcs = 4;
vc_buf_size = 8;
wait_for_tail_credit = 1;

// Traffic
traffic = uniform;
injection_rate = 0.05;

// Simulation
sim_type = latency;
warmup_periods = 3;
max_samples = 20000;
latency_thres = 500.0;
sim_count = 1;

END Configuration File: ../logs/session_2026_06_05_12_15/torus_run/config.cfg
Class 0:
Packet latency average = 31.6711
	minimum = 7
	maximum = 80
Network latency average = 31.6711
	minimum = 7
	maximum = 80
Slowest packet = 2350
Flit latency average = 31.6711
	minimum = 7
	maximum = 80
Slowest flit = 2350
Fragmentation average = 0
	minimum = 0
	maximum = 0
Injected packet rate average = 0.0495312
	minimum = 0.034 (at node 9)
	maximum = 0.064 (at node 41)
Accepted packet rate average = 0.0478906
	minimum = 0.028 (at node 23)
	maximum = 0.064 (at node 2)
Injected flit rate average = 0.0495312
	minimum = 0.034 (at node 9)
	maximum = 0.064 (at node 41)
Accepted flit rate average= 0.0478906
	minimum = 0.028 (at node 23)
	maximum = 0.064 (at node 2)
Injected packet length average = 1
Accepted packet length average = 1
Total in-flight flits = 105 (0 measured)
Buffer busy stall rate = 0.0325781
Buffer conflict stall rate = 0.00296875
Buffer full stall rate = 0
Buffer reserved stall rate = 0
Crossbar conflict stall rate = 0.0021875
latency change    = 1
throughput change = 1
Class 0:
Packet latency average = 31.7311
	minimum = 7
	maximum = 80
Network latency average = 31.7311
	minimum = 7
	maximum = 80
Slowest packet = 2350
Flit latency average = 31.7311
	minimum = 7
	maximum = 80
Slowest flit = 2350
Fragmentation average = 0
	minimum = 0
	maximum = 0
Injected packet rate average = 0.0495469
	minimum = 0.04 (at node 9)
	maximum = 0.0595 (at node 37)
Accepted packet rate average = 0.0488594
	minimum = 0.0355 (at node 19)
	maximum = 0.064 (at node 2)
Injected flit rate average = 0.0495469
	minimum = 0.04 (at node 9)
	maximum = 0.0595 (at node 37)
Accepted flit rate average= 0.0488594
	minimum = 0.0355 (at node 19)
	maximum = 0.064 (at node 2)
Injected packet length average = 1
Accepted packet length average = 1
Total in-flight flits = 88 (0 measured)
Buffer busy stall rate = 0.0337656
Buffer conflict stall rate = 0.00319531
Buffer full stall rate = 0
Buffer reserved stall rate = 0
Crossbar conflict stall rate = 0.00228906
latency change    = 0.00188858
throughput change = 0.0198273
Class 0:
Packet latency average = 31.6064
	minimum = 7
	maximum = 67
Network latency average = 31.6064
	minimum = 7
	maximum = 67
Slowest packet = 6595
Flit latency average = 31.6064
	minimum = 7
	maximum = 67
Slowest flit = 6595
Fragmentation average = 0
	minimum = 0
	maximum = 0
Injected packet rate average = 0.05
	minimum = 0.035 (at node 14)
	maximum = 0.07 (at node 47)
Accepted packet rate average = 0.049625
	minimum = 0.029 (at node 22)
	maximum = 0.064 (at node 38)
Injected flit rate average = 0.05
	minimum = 0.035 (at node 14)
	maximum = 0.07 (at node 47)
Accepted flit rate average= 0.049625
	minimum = 0.029 (at node 22)
	maximum = 0.064 (at node 38)
Injected packet length average = 1
Accepted packet length average = 1
Total in-flight flits = 112 (0 measured)
Buffer busy stall rate = 0.0297656
Buffer conflict stall rate = 0.002875
Buffer full stall rate = 0
Buffer reserved stall rate = 0
Crossbar conflict stall rate = 0.00217188
latency change    = 0.00394315
throughput change = 0.0154282
Warmed up ...Time used is 3000 cycles
Class 0:
Packet latency average = 31.5906
	minimum = 7
	maximum = 69
Network latency average = 31.5906
	minimum = 7
	maximum = 69
Slowest packet = 10109
Flit latency average = 31.716
	minimum = 7
	maximum = 69
Slowest flit = 10109
Fragmentation average = 0
	minimum = 0
	maximum = 0
Injected packet rate average = 0.05125
	minimum = 0.035 (at node 52)
	maximum = 0.066 (at node 34)
Accepted packet rate average = 0.0514375
	minimum = 0.03 (at node 20)
	maximum = 0.071 (at node 1)
Injected flit rate average = 0.05125
	minimum = 0.035 (at node 52)
	maximum = 0.066 (at node 34)
Accepted flit rate average= 0.0514375
	minimum = 0.03 (at node 20)
	maximum = 0.071 (at node 1)
Injected packet length average = 1
Accepted packet length average = 1
Total in-flight flits = 100 (100 measured)
Buffer busy stall rate = 0.0334219
Buffer conflict stall rate = 0.00360938
Buffer full stall rate = 0
Buffer reserved stall rate = 0
Crossbar conflict stall rate = 0.00270312
latency change    = 0.000501958
throughput change = 0.0352369
Class 0:
Packet latency average = 31.8578
	minimum = 7
	maximum = 69
Network latency average = 31.8577
	minimum = 7
	maximum = 69
Slowest packet = 10109
Flit latency average = 31.9167
	minimum = 7
	maximum = 69
Slowest flit = 10109
Fragmentation average = 0
	minimum = 0
	maximum = 0
Injected packet rate average = 0.0505469
	minimum = 0.038 (at node 52)
	maximum = 0.0635 (at node 43)
Accepted packet rate average = 0.0506641
	minimum = 0.041 (at node 48)
	maximum = 0.063 (at node 1)
Injected flit rate average = 0.0505469
	minimum = 0.038 (at node 52)
	maximum = 0.0635 (at node 43)
Accepted flit rate average= 0.0506641
	minimum = 0.041 (at node 48)
	maximum = 0.063 (at node 1)
Injected packet length average = 1
Accepted packet length average = 1
Total in-flight flits = 97 (97 measured)
Buffer busy stall rate = 0.0338672
Buffer conflict stall rate = 0.00382031
Buffer full stall rate = 0
Buffer reserved stall rate = 0
Crossbar conflict stall rate = 0.00259375
latency change    = 0.00838951
throughput change = 0.015266
Class 0:
Packet latency average = 31.8782
	minimum = 7
	maximum = 69
Network latency average = 31.8781
	minimum = 7
	maximum = 69
Slowest packet = 10109
Flit latency average = 31.9173
	minimum = 7
	maximum = 69
Slowest flit = 10109
Fragmentation average = 0
	minimum = 0
	maximum = 0
Injected packet rate average = 0.0505
	minimum = 0.039 (at node 53)
	maximum = 0.057 (at node 20)
Accepted packet rate average = 0.0505573
	minimum = 0.041 (at node 48)
	maximum = 0.0613333 (at node 25)
Injected flit rate average = 0.0505
	minimum = 0.039 (at node 53)
	maximum = 0.057 (at node 20)
Accepted flit rate average= 0.0505573
	minimum = 0.041 (at node 48)
	maximum = 0.0613333 (at node 25)
Injected packet length average = 1
Accepted packet length average = 1
Total in-flight flits = 101 (101 measured)
Buffer busy stall rate = 0.0345937
Buffer conflict stall rate = 0.00373437
Buffer full stall rate = 0
Buffer reserved stall rate = 0
Crossbar conflict stall rate = 0.00254688
latency change    = 0.000637677
throughput change = 0.00211188
Draining all recorded packets ...
Draining remaining packets ...
Time taken is 6101 cycles
====== Overall Traffic Statistics ======
====== Traffic class 0 ======
Packet latency average = 31.9177 (1 samples)
	minimum = 7 (1 samples)
	maximum = 69 (1 samples)
Network latency average = 31.9176 (1 samples)
	minimum = 7 (1 samples)
	maximum = 69 (1 samples)
Flit latency average = 31.9555 (1 samples)
	minimum = 7 (1 samples)
	maximum = 69 (1 samples)
Fragmentation average = 0 (1 samples)
	minimum = 0 (1 samples)
	maximum = 0 (1 samples)
Injected packet rate average = 0.0505 (1 samples)
	minimum = 0.039 (1 samples)
	maximum = 0.057 (1 samples)
Accepted packet rate average = 0.0505573 (1 samples)
	minimum = 0.041 (1 samples)
	maximum = 0.0613333 (1 samples)
Injected flit rate average = 0.0505 (1 samples)
	minimum = 0.039 (1 samples)
	maximum = 0.057 (1 samples)
Accepted flit rate average = 0.0505573 (1 samples)
	minimum = 0.041 (1 samples)
	maximum = 0.0613333 (1 samples)
Injected packet size average = 1 (1 samples)
Accepted packet size average = 1 (1 samples)
Hops average = 5.01887 (1 samples)
Buffer busy stall rate = 0.0345937 (1 samples)
Buffer conflict stall rate = 0.00373437 (1 samples)
Buffer full stall rate = 0 (1 samples)
Buffer reserved stall rate = 0 (1 samples)
Crossbar conflict stall rate = 0.00254688 (1 samples)
Total run time 1.53522
